version 2
run BaseConfig-0-20170209-13:04:54-12780
attr configname BaseConfig
attr datetime 20170209-13:04:54
attr experiment BaseConfig
attr inifile omnetpp.ini
attr iterationvars ""
attr iterationvars2 $repetition=0
attr measurement ""
attr network Base
attr processid 12780
attr repetition 0
attr replication #0
attr resultdir results
attr runnumber 0
attr seedset 0
param *.configurator.addStaticRoutes false
param *.configurator.config "xml(\"<config><interface hosts='**' address='10.0.0.x' netmask='255.255.255.0'/><autoroute metric='errorRate'/></config>\")"
param *.configurator.optimizeRoutes false
param *.host*.**.bitrate 1Mbps
param *.host*.energyStorageType "\"IdealEnergyStorage\""
param *.host*.forwarding true
param *.host*.mobility.initialZ 1.7m
param *.host*.networkLayer.arpType "\"GlobalARP\""
param *.host*.routingTable.netmaskRoutes "\"\""
param *.host*.wlan[0].mac.fullDuplex true
param *.host*.wlan[0].mac.maxQueueSize 10
param *.host*.wlan[0].mac.useAck true
param *.host*.wlan[0].macType "\"CsmaCaMac\""
param *.host*.wlan[0].radio.antenna.gain 3dB
param *.host*.wlan[0].radio.antennaType "\"ConstantGainAntenna\""
param *.host*.wlan[0].radio.bandwidth 2MHz
param *.host*.wlan[0].radio.carrierFrequency 2GHz
param *.host*.wlan[0].radio.displayInterferenceRange false
param *.host*.wlan[0].radio.energyConsumer transmitterIdlePowerConsumption 2mW
param *.host*.wlan[0].radio.energyConsumer.offPowerConsumption 0mW
param *.host*.wlan[0].radio.energyConsumer.receiverBusyPowerConsumption 5mW
param *.host*.wlan[0].radio.energyConsumer.receiverIdlePowerConsumption 2mW
param *.host*.wlan[0].radio.energyConsumer.receiverReceivingPowerConsumption 10mW
param *.host*.wlan[0].radio.energyConsumer.sleepPowerConsumption 1mW
param *.host*.wlan[0].radio.energyConsumer.switchingPowerConsumption 1mW
param *.host*.wlan[0].radio.energyConsumer.transmitterTransmittingPowerConsumption 100mW
param *.host*.wlan[0].radio.energyConsumerType "\"StateBasedEnergyConsumer\""
param *.host*.wlan[0].radio.receiver.energyDetection -85dBm
param *.host*.wlan[0].radio.receiver.ignoreInterference false
param *.host*.wlan[0].radio.receiver.sensitivity -85dBm
param *.host*.wlan[0].radio.receiver.snirThreshold 4dB
param *.host*.wlan[0].radio.transmitter.communicationRange 250m
param *.host*.wlan[0].radio.transmitter.headerBitLength 0b
param *.host*.wlan[0].radio.transmitter.interferenceRange 500m
param *.host*.wlan[0].radio.transmitter.power 1.4mW
param *.host*.wlan[0].radio.transmitter.preambleDuration 10us
param *.host*.wlan[0].radioType "\"APSKScalarRadio\""
param *.host*.wlan[0].typename "\"WirelessNic\""
param *.hostM0.numUdpApps 1
param *.hostM0.udpApp[0].destAddresses "\"hostM1\""
param *.hostM0.udpApp[0].destPort 5000
param *.hostM0.udpApp[0].messageLength 1000B
param *.hostM0.udpApp[0].packetName "\"UDPData\""
param *.hostM0.udpApp[0].sendInterval exponential(12ms)
param *.hostM0.udpApp[0].typename "\"UDPBasicApp\""
param *.hostM1.numUdpApps 1
param *.hostM1.udpApp[0].localPort 5000
param *.hostM1.udpApp[0].typename "\"UDPSink\""
param *.hostM1.wlan[0].radio.displayCommunicationRange true
param *.hostS*.mobility.angle 270deg
param *.hostS*.mobility.speed 12mps
param *.hostS*.mobilityType "\"LinearMobility\""
param *.hostType "\"AODVRouter\""
param *.mediumType "\"APSKScalarRadioMedium\""
param *.physicalEnvironment.config "xmldoc(\"walls.xml\")"
param *.physicalEnvironment.ground.elevation 0m
param *.physicalEnvironment.groundType "\"FlatGround\""
param *.radioMedium.backgroundNoise.power -90dBm
param *.radioMedium.mediumLimitCache.carrierFrequency 2GHz
param *.radioMedium.obstacleLossType "\"IdealObstacleLoss\""
param *.radioMedium.pathLossType "\"TwoRayGroundReflection\""
param *.visualizer.dataLinkVisualizer.packetNameFilter "\"AODV*\""
param *.visualizer.mediumVisualizer.displaySignals false
param *.visualizer.mediumVisualizer.signalPropagationUpdateInterval 100ns
param *.visualizer.mobilityVisualizer.displayMovementTrail true
param *.visualizer.networkRouteVisualizer.packetNameFilter "\"UDPData*\""
param *.visualizer.physicalLinkVisualizer.packetNameFilter "\"UDPData*\""
param *.visualizer.sceneVisualizer.descriptionFigure "\"title\""

vector 0  Base.hostM0.energyStorage  powerConsumption:vector  ETV
attr interpolationmode  sample-hold
attr source  powerConsumptionChanged
attr title  "Power consumption, vector"
vector 19  Base.hostM1.energyStorage  powerConsumption:vector  ETV
attr interpolationmode  sample-hold
attr source  powerConsumptionChanged
attr title  "Power consumption, vector"
vector 37  Base.hostS00.energyStorage  powerConsumption:vector  ETV
attr interpolationmode  sample-hold
attr source  powerConsumptionChanged
attr title  "Power consumption, vector"
vector 47  Base.hostS01.energyStorage  powerConsumption:vector  ETV
attr interpolationmode  sample-hold
attr source  powerConsumptionChanged
attr title  "Power consumption, vector"
vector 57  Base.hostS02.energyStorage  powerConsumption:vector  ETV
attr interpolationmode  sample-hold
attr source  powerConsumptionChanged
attr title  "Power consumption, vector"
vector 15  Base.hostM0.wlan[0].radio  radioMode:vector  ETV
attr interpolationmode  sample-hold
attr source  radioModeChanged
attr title  "Radio mode, vector"
vector 33  Base.hostM1.wlan[0].radio  radioMode:vector  ETV
attr interpolationmode  sample-hold
attr source  radioModeChanged
attr title  "Radio mode, vector"
vector 43  Base.hostS00.wlan[0].radio  radioMode:vector  ETV
attr interpolationmode  sample-hold
attr source  radioModeChanged
attr title  "Radio mode, vector"
vector 53  Base.hostS01.wlan[0].radio  radioMode:vector  ETV
attr interpolationmode  sample-hold
attr source  radioModeChanged
attr title  "Radio mode, vector"
vector 63  Base.hostS02.wlan[0].radio  radioMode:vector  ETV
attr interpolationmode  sample-hold
attr source  radioModeChanged
attr title  "Radio mode, vector"
vector 16  Base.hostM0.wlan[0].radio  receptionState:vector  ETV
attr interpolationmode  sample-hold
attr source  receptionStateChanged
attr title  "Radio reception state, vector"
vector 34  Base.hostM1.wlan[0].radio  receptionState:vector  ETV
attr interpolationmode  sample-hold
attr source  receptionStateChanged
attr title  "Radio reception state, vector"
vector 44  Base.hostS00.wlan[0].radio  receptionState:vector  ETV
attr interpolationmode  sample-hold
attr source  receptionStateChanged
attr title  "Radio reception state, vector"
vector 54  Base.hostS01.wlan[0].radio  receptionState:vector  ETV
attr interpolationmode  sample-hold
attr source  receptionStateChanged
attr title  "Radio reception state, vector"
vector 64  Base.hostS02.wlan[0].radio  receptionState:vector  ETV
attr interpolationmode  sample-hold
attr source  receptionStateChanged
attr title  "Radio reception state, vector"
vector 4  Base.hostM0.udpApp[0]  sentPk:vector(packetBytes)  ETV
attr interpolationmode  none
attr source  sentPk
attr title  "packets sent, vector(packetBytes)"
vector 7  Base.hostM0.udp  sentPk:vector(packetBytes)  ETV
attr interpolationmode  none
attr source  sentPk
attr title  "packets sent, vector(packetBytes)"
vector 2  Base.hostM0.energyStorage  residualCapacity:vector  ETV
attr interpolationmode  linear
attr source  residualCapacityChanged
attr title  "Residual capacity, vector"
vector 17  Base.hostM0.wlan[0].radio  transmissionState:vector  ETV
attr interpolationmode  sample-hold
attr source  transmissionStateChanged
attr title  "Radio transmission state, vector"
vector 49  Base.hostS01.energyStorage  residualCapacity:vector  ETV
attr interpolationmode  linear
attr source  residualCapacityChanged
attr title  "Residual capacity, vector"
vector 55  Base.hostS01.wlan[0].radio  transmissionState:vector  ETV
attr interpolationmode  sample-hold
attr source  transmissionStateChanged
attr title  "Radio transmission state, vector"
vector 39  Base.hostS00.energyStorage  residualCapacity:vector  ETV
attr interpolationmode  linear
attr source  residualCapacityChanged
attr title  "Residual capacity, vector"
vector 59  Base.hostS02.energyStorage  residualCapacity:vector  ETV
attr interpolationmode  linear
attr source  residualCapacityChanged
attr title  "Residual capacity, vector"
vector 21  Base.hostM1.energyStorage  residualCapacity:vector  ETV
attr interpolationmode  linear
attr source  residualCapacityChanged
attr title  "Residual capacity, vector"
vector 35  Base.hostM1.wlan[0].radio  transmissionState:vector  ETV
attr interpolationmode  sample-hold
attr source  transmissionStateChanged
attr title  "Radio transmission state, vector"
vector 26  Base.hostM1.udp  rcvdPk:vector(packetBytes)  ETV
attr interpolationmode  none
attr source  rcvdPk
attr title  "packets received, vector(packetBytes)"
vector 27  Base.hostM1.udp  passedUpPk:vector(count)  ETV
attr interpolationmode  none
attr title  "packets passed up, vector(count)"
vector 22  Base.hostM1.udpApp[0]  rcvdPk:vector(packetBytes)  ETV
attr interpolationmode  none
attr source  rcvdPk
attr title  "packets received, vector(packetBytes)"
vector 23  Base.hostM1.udpApp[0]  endToEndDelay:vector  ETV
attr interpolationmode  none
attr source  messageAge(rcvdPk)
attr title  "end-to-end delay, vector"
attr unit  s
vector 24  Base.hostM1.udpApp[0]  rcvdPkSeqNo:vector  ETV
attr interpolationmode  none
attr source  appPkSeqNo(rcvdPk)
attr title  "received packet sequence number, vector"
vector 45  Base.hostS00.wlan[0].radio  transmissionState:vector  ETV
attr interpolationmode  sample-hold
attr source  transmissionStateChanged
attr title  "Radio transmission state, vector"
vector 65  Base.hostS02.wlan[0].radio  transmissionState:vector  ETV
attr interpolationmode  sample-hold
attr source  transmissionStateChanged
attr title  "Radio transmission state, vector"
0	0	0	0
2	28	0.016728842123	-3.3457684246e-005
2	34	0.017218842123	-8.2457684246e-005
2	47	0.018033473842	-8.4086947684e-005
2	52	0.018523473842	-8.8986947684e-005
2	89	0.01956364139	-9.106728278e-005
2	94	0.01963764139	-9.180728278e-005
2	110	0.024042266417	-0.000100616532834
2	115	0.024500266417	-0.000105196532834
2	127	0.024510266417	-0.000105216532834
2	133	0.024584266417	-0.000112616532834
2	140	0.024734266417	-0.000112916532834
2	166	0.033032266417	-0.000942716532834
2	176	0.033043332538	-0.000942738665076
2	181	0.033117332538	-0.000943478665076
2	191	0.033467332538	-0.000944178665076
2	199	0.041765332538	-0.001773978665076
2	209	0.041776398114	-0.001774000796228
2	214	0.041850398114	-0.001774740796228
2	225	0.04190039811	-0.00177484079622
2	232	0.05019839811	-0.00185782079622
2	258	0.05030839811	-0.00185804079622
2	270	0.05860639811	-0.00268784079622
2	280	0.058617462635	-0.00268786292527
2	285	0.058691462635	-0.00268860292527
2	297	0.059121462619	-0.002689462925238
2	308	0.067419462619	-0.002772442925238
2	326	0.067489462619	-0.002772582925238
2	342	0.075787462619	-0.003602382925238
2	352	0.076018526065	-0.00360284505213
2	363	0.084316526065	-0.00368582505213
2	389	0.084566526065	-0.00368632505213
2	396	0.092864526065	-0.00451612505213
2	406	0.092875588454	-0.004516147176908
2	411	0.092949588454	-0.004516887176908
2	423	0.093059588448	-0.004517107176896
2	437	0.101357588448	-0.004600087176896
2	463	0.101967588448	-0.004601307176896
2	479	0.110265588448	-0.005431107176896
2	489	0.110276649753	-0.005431129299506
2	494	0.110350649753	-0.005431869299506
2	506	0.110520649746	-0.005432209299492
2	513	0.118818649746	-0.005515189299492
2	539	0.119208649746	-0.005515969299492
2	551	0.127506649746	-0.006345769299492
2	561	0.127517709978	-0.006345791419956
2	566	0.127591709978	-0.006346531419956
2	578	0.128161709958	-0.006347671419916
2	589	0.136459709958	-0.006430651419916
2	615	0.136649709958	-0.006431031419916
2	623	0.144947709958	-0.007260831419916
2	633	0.144958769106	-0.007260853538212
2	638	0.145032769106	-0.007261593538212
2	650	0.1451427691	-0.0072618135382
2	657	0.1534407691	-0.0073447935382
2	683	0.1537107691	-0.0073453335382
2	691	0.1620087691	-0.0081751335382
2	701	0.162019827187	-0.008175155654374
2	706	0.162093827187	-0.008175895654374
2	716	0.162143827187	-0.008175995654374
2	728	0.170441827187	-0.009005795654374
2	738	0.170452884751	-0.009005817769502
2	743	0.170526884751	-0.009006557769502
2	755	0.170816884739	-0.009007137769478
2	766	0.179114884739	-0.009090117769478
2	792	0.179244884739	-0.009090377769478
2	804	0.187542884739	-0.009920177769478
2	814	0.187553941241	-0.009920199882482
2	819	0.187627941241	-0.009920939882482
2	829	0.187737941241	-0.009921159882482
2	841	0.196035941241	-0.010750959882482
2	851	0.196046997215	-0.01075098199443
2	856	0.196120997215	-0.01075172199443
2	868	0.196330997206	-0.010752141994412
2	878	0.204628997206	-0.010835121994412
2	905	0.205078997206	-0.010836021994412
2	921	0.213376997206	-0.011665821994412
2	931	0.213388052104	-0.011665844104208
2	936	0.213462052104	-0.011666584104208
2	948	0.213832052091	-0.011667324104182
2	955	0.222130052091	-0.011750304104182
2	984	0.222266213344	-0.011750576426688
2	995	0.230564213344	-0.011833556426688
2	1004	0.230614213344	-0.011833656426688
2	1013	0.238912213344	-0.012663456426688
2	1023	0.238923266659	-0.012663478533318
2	1028	0.238997266659	-0.012664218533318
2	1038	0.239087266659	-0.012664398533318
2	1049	0.247385266659	-0.013494198533318
2	1059	0.24739631945	-0.0134942206389
2	1064	0.24747031945	-0.0134949606389
2	1076	0.247560319445	-0.01349514063889
2	1083	0.255858319445	-0.01357812063889
2	1110	0.256228319445	-0.01357886063889
2	1118	0.264526319445	-0.01440866063889
2	1128	0.264537371174	-0.014408682742348
2	1133	0.264611371174	-0.014409422742348
2	1143	0.264661371174	-0.014409522742348
2	1151	0.272959371174	-0.015239322742348
2	1161	0.272970422381	-0.015239344844762
2	1166	0.273044422381	-0.015240084844762
2	1176	0.273314422381	-0.015240624844762
2	1184	0.281612422381	-0.016070424844762
2	1194	0.281623473054	-0.016070446946108
2	1199	0.281697473054	-0.016071186946108
2	1209	0.282207473054	-0.016072206946108
2	1221	0.290505473054	-0.016902006946108
2	1231	0.290516523177	-0.016902029046354
2	1236	0.290590523177	-0.016902769046354
2	1248	0.290680523172	-0.016902949046344
2	1259	0.298978523172	-0.016985929046344
2	1269	0.299088523172	-0.016986149046344
2	1280	0.307386523172	-0.017815949046344
2	1290	0.307397572251	-0.017815971144502
2	1295	0.307471572251	-0.017816711144502
2	1307	0.307581572246	-0.017816931144492
2	1313	0.315879572246	-0.017899911144492
2	1340	0.316289572246	-0.017900731144492
2	1352	0.324587572246	-0.018730531144492
2	1362	0.324598620263	-0.018730553240526
2	1367	0.324672620263	-0.018731293240526
2	1379	0.324802620257	-0.018731553240514
2	1386	0.333100620257	-0.018814533240514
2	1413	0.333370620257	-0.018815073240514
2	1421	0.341668620257	-0.019644873240514
2	1431	0.341679667219	-0.019644895334438
2	1436	0.341753667219	-0.019645635334438
2	1446	0.342123667219	-0.019646375334438
2	1454	0.350421667219	-0.020476175334438
2	1464	0.350432713641	-0.020476197427282
2	1469	0.350506713641	-0.020476937427282
2	1479	0.350556713641	-0.020477037427282
2	1495	0.358854713641	-0.021306837427282
2	1505	0.358865759543	-0.021306859519086
2	1510	0.358939759543	-0.021307599519086
2	1522	0.359469759525	-0.02130865951905
2	1533	0.367767759525	-0.02139163951905
2	1544	0.368297759525	-0.02139269951905
2	1560	0.376595759525	-0.02222249951905
2	1570	0.376606804335	-0.02222252160867
2	1575	0.376680804335	-0.02222326160867
2	1587	0.376990804323	-0.022223881608646
2	1593	0.385288804323	-0.022306861608646
2	1620	0.385498804323	-0.022307281608646
2	1632	0.393796804323	-0.023137081608646
2	1642	0.393807848073	-0.023137103696146
2	1647	0.393881848073	-0.023137843696146
2	1657	0.394331848073	-0.023138743696146
2	1668	0.402629848073	-0.023968543696146
2	1678	0.402640891279	-0.023968565782558
2	1683	0.402714891279	-0.023969305782558
2	1695	0.403004891268	-0.023969885782536
2	1702	0.411302891268	-0.024052865782536
2	1720	0.411352891268	-0.024052965782536
2	1740	0.419650891268	-0.024882765782536
2	1750	0.419961933417	-0.024883387866834
2	1757	0.428259933417	-0.024966367866834
2	1784	0.428749933417	-0.024967347866834
2	1791	0.437047933417	-0.025797147866834
2	1801	0.437058974506	-0.025797169949012
2	1806	0.437132974506	-0.025797909949012
2	1818	0.437402974495	-0.02579844994899
2	1825	0.445700974495	-0.02588142994899
2	1852	0.446230974495	-0.02588248994899
2	1860	0.454528974495	-0.02671228994899
2	1870	0.45454001451	-0.02671231202902
2	1875	0.45461401451	-0.02671305202902
2	1885	0.45498401451	-0.02671379202902
2	1893	0.46328201451	-0.02754359202902
2	1903	0.463293053987	-0.027543614107974
2	1908	0.463367053987	-0.027544354107974
2	1918	0.463857053987	-0.027545334107974
2	1930	0.472155053987	-0.028375134107974
2	1940	0.47216609292	-0.02837515618584
2	1945	0.47224009292	-0.02837589618584
2	1957	0.472310092916	-0.028376036185832
2	1964	0.480608092916	-0.028459016185832
2	1990	0.480738092916	-0.028459276185832
2	1998	0.489036092916	-0.029289076185832
2	2008	0.489047130813	-0.029289098261626
2	2013	0.489121130813	-0.029289838261626
2	2023	0.489291130813	-0.029290178261626
2	2031	0.497589130813	-0.030119978261626
2	2041	0.497600168186	-0.030120000336372
2	2046	0.497674168186	-0.030120740336372
2	2056	0.497984168186	-0.030121360336372
2	2075	0.506282168186	-0.030951160336372
2	2085	0.506293205026	-0.030951182410052
2	2090	0.506367205026	-0.030951922410052
2	2100	0.506577205026	-0.030952342410052
2	2108	0.514875205026	-0.031782142410052
2	2118	0.51488624134	-0.03178216448268
2	2123	0.51496024134	-0.03178290448268
2	2133	0.51523024134	-0.03178344448268
2	2145	0.52352824134	-0.03261324448268
2	2155	0.523539277124	-0.032613266554248
2	2160	0.523613277124	-0.032614006554248
2	2170	0.523683277124	-0.032614146554248
2	2186	0.531981277124	-0.033443946554248
2	2196	0.53199231239	-0.03344396862478
2	2201	0.53206631239	-0.03344470862478
2	2211	0.53217631239	-0.03344492862478
2	2219	0.54047431239	-0.03427472862478
2	2229	0.540485347136	-0.034274750694272
2	2234	0.540559347136	-0.034275490694272
2	2244	0.540669347136	-0.034275710694272
2	2252	0.548967347136	-0.035105510694272
2	2262	0.548978381362	-0.035105532762724
2	2267	0.549052381362	-0.035106272762724
2	2278	0.549342381351	-0.035106852762702
2	2285	0.557640381351	-0.035189832762702
2	2313	0.558216532593	-0.035190985065186
2	2320	0.566514532593	-0.035273965065186
2	2348	0.566750683584	-0.035274437367168
2	2359	0.575048683584	-0.035357417367168
2	2370	0.575318683584	-0.035357957367168
2	2382	0.583616683584	-0.036187757367168
2	2392	0.583627715692	-0.036187779431384
2	2397	0.583701715692	-0.036188519431384
2	2407	0.583851715692	-0.036188819431384
2	2418	0.592149715692	-0.037018619431384
2	2428	0.59216074728	-0.03701864149456
2	2433	0.59223474728	-0.03701938149456
2	2443	0.59232474728	-0.03701956149456
2	2454	0.60062274728	-0.03784936149456
2	2464	0.60063377835	-0.0378493835567
2	2469	0.60070777835	-0.0378501235567
2	2480	0.601137778335	-0.03785098355667
2	2487	0.609435778335	-0.03793396355667
2	2515	0.60999192806	-0.03793507585612
2	2522	0.61828992806	-0.03801805585612
2	2550	0.618826077526	-0.038019128155052
2	2561	0.627124077526	-0.038102108155052
2	2587	0.627234077526	-0.038102328155052
2	2599	0.635532077526	-0.038932128155052
2	2609	0.635543106467	-0.038932150212934
2	2614	0.635617106467	-0.038932890212934
2	2624	0.635727106467	-0.038933110212934
2	2632	0.644025106467	-0.039762910212934
2	2642	0.64403613489	-0.03976293226978
2	2647	0.64411013489	-0.03976367226978
2	2658	0.644680134871	-0.039764812269742
2	2665	0.652978134871	-0.039847792269742
2	2677	0.654002134587	-0.039849840269174
2	2684	0.662300134587	-0.039932820269174
2	2712	0.662616282777	-0.039933452565554
2	2718	0.670914282777	-0.040016432565554
2	2746	0.671310430714	-0.040017224861428
2	2757	0.679608430714	-0.040100204861428
2	2786	0.679984578399	-0.040100957156798
2	2797	0.688282578399	-0.040183937156798
2	2815	0.688352578399	-0.040184077156798
2	2843	0.696650578399	-0.041013877156798
2	2851	0.696741603618	-0.041014059207236
2	2862	0.705039603618	-0.041097039207236
2	2891	0.705495750562	-0.041097951501124
2	2897	0.713793750562	-0.041180931501124
2	2926	0.713949897262	-0.041181243794524
2	2941	0.722247897262	-0.041264223794524
2	2952	0.722457897262	-0.041264643794524
2	2964	0.730755897262	-0.042094443794524
2	2974	0.730766920412	-0.042094465840824
2	2979	0.730840920412	-0.042095205840824
2	2991	0.730950920406	-0.042095425840812
2	2997	0.739248920406	-0.042178405840812
2	3023	0.739358920406	-0.042178625840812
2	3031	0.747656920406	-0.043008425840812
2	3041	0.74766794253	-0.04300844788506
2	3046	0.74774194253	-0.04300918788506
2	3056	0.74813194253	-0.04300996788506
2	3064	0.75642994253	-0.04383976788506
2	3074	0.756440964122	-0.043839789928244
2	3079	0.756514964122	-0.043840529928244
2	3089	0.756904964122	-0.043841309928244
2	3097	0.765202964122	-0.044671109928244
2	3107	0.765213985182	-0.044671131970364
2	3112	0.765287985182	-0.044671871970364
2	3124	0.765737985166	-0.044672771970332
2	3131	0.774035985166	-0.044755751970332
2	3158	0.774185985166	-0.044756051970332
2	3166	0.782483985166	-0.045585851970332
2	3176	0.782495005179	-0.045585874010358
2	3181	0.782569005179	-0.045586614010358
2	3193	0.783039005162	-0.045587554010324
2	3204	0.791337005162	-0.045670534010324
2	3233	0.791613149621	-0.045671086299242
2	3240	0.799911149621	-0.045754066299242
2	3254	0.800401149621	-0.045755046299242
2	3262	0.808699149621	-0.046584846299242
2	3272	0.808710168048	-0.046584868336096
2	3277	0.808784168048	-0.046585608336096
2	3289	0.80895416804	-0.04658594833608
2	3295	0.81725216804	-0.04666892833608
2	3324	0.817768311747	-0.046669960623494
2	3331	0.826066311747	-0.046752940623494
2	3358	0.826296311747	-0.046753400623494
2	3370	0.834594311747	-0.047583200623494
2	3380	0.834605328608	-0.047583222657216
2	3385	0.834679328608	-0.047583962657216
2	3395	0.834729328608	-0.047584062657216
2	3403	0.843027328608	-0.048413862657216
2	3413	0.843038344959	-0.048413884689918
2	3418	0.843112344959	-0.048414624689918
2	3430	0.84334234495	-0.0484150846899
2	3441	0.85164034495	-0.0484980646899
2	3468	0.85221034495	-0.0484992046899
2	3480	0.86050834495	-0.0493290046899
2	3490	0.860519360246	-0.049329026720492
2	3495	0.860593360246	-0.049329766720492
2	3507	0.86072336024	-0.04933002672048
2	3514	0.86902136024	-0.04941300672048
2	3543	0.869217502473	-0.049413399004946
2	3550	0.877515502473	-0.049496379004946
2	3577	0.877725502473	-0.049496799004946
2	3585	0.886023502473	-0.050326599004946
2	3595	0.88603451623	-0.05032662103246
2	3600	0.88610851623	-0.05032736103246
2	3610	0.88643851623	-0.05032802103246
2	3630	0.89473651623	-0.05115782103246
2	3640	0.894747529462	-0.051157843058924
2	3645	0.894821529462	-0.051158583058924
2	3655	0.895211529462	-0.051159363058924
2	3670	0.903509529462	-0.051989163058924
2	3680	0.903520542166	-0.051989185084332
2	3685	0.903594542166	-0.051989925084332
2	3696	0.903644542162	-0.051990025084324
2	3703	0.911942542162	-0.052073005084324
2	3730	0.912552542162	-0.052074225084324
2	3738	0.920850542162	-0.052904025084324
2	3748	0.920861553822	-0.052904047107644
2	3753	0.920935553822	-0.052904787107644
2	3765	0.921185553812	-0.052905287107624
2	3772	0.929483553812	-0.052988267107624
2	3801	0.929979694316	-0.052989259388632
2	3812	0.938277694316	-0.053072239388632
2	3825	0.93880169405	-0.0530732873881
2	3836	0.94709969405	-0.0531562673881
2	3865	0.947235834065	-0.05315653966813
2	3879	0.955533834065	-0.05323951966813
2	3905	0.955663834065	-0.05323977966813
2	3913	0.963961834065	-0.05406957966813
2	3923	0.963972843133	-0.054069601686266
2	3928	0.964046843133	-0.054070341686266
2	3940	0.964356843122	-0.054070961686244
2	3955	0.972654843122	-0.054153941686244
2	3984	0.972970982406	-0.054154573964812
2	3991	0.981268982406	-0.054237553964812
2	4018	0.981738982406	-0.054238493964812
2	4030	0.990036982406	-0.055068293964812
2	4040	0.990047989909	-0.055068315979818
2	4045	0.990121989909	-0.055069055979818
2	4061	0.990391989898	-0.055069595979796
2	4072	0.998689989898	-0.055152575979796
2	4090	0.998759989898	-0.055152715979796
2	4114	1.007057989898	-0.055982515979796
2	4128	1.007528996366	-0.055983457992732
2	4139	1.015826996366	-0.056066437992732
2	4168	1.016023134434	-0.056066830268868
2	4174	1.024321134434	-0.056149810268868
2	4203	1.024637272261	-0.056150442544522
2	4218	1.032935272261	-0.056233422544522
2	4244	1.033125272261	-0.056233802544522
2	4256	1.041423272261	-0.057063602544522
2	4266	1.041434276684	-0.057063624553368
2	4271	1.041508276684	-0.057064364553368
2	4283	1.041878276671	-0.057065104553342
2	4290	1.050176276671	-0.057148084553342
2	4316	1.050706276671	-0.057149144553342
2	4328	1.059004276671	-0.057978944553342
2	4338	1.059015280043	-0.057978966560086
2	4343	1.059089280043	-0.057979706560086
2	4355	1.059259280035	-0.05798004656007
2	4366	1.067557280035	-0.05806302656007
2	4392	1.067647280035	-0.05806320656007
2	4404	1.075945280035	-0.05889300656007
2	4414	1.075956282394	-0.058893028564788
2	4419	1.076030282394	-0.058893768564788
2	4431	1.076340282383	-0.058894388564766
2	4442	1.084638282383	-0.058977368564766
2	4468	1.084928282383	-0.058977948564766
2	4480	1.093226282383	-0.059807748564766
2	4490	1.093237283711	-0.059807770567422
2	4495	1.093311283711	-0.059808510567422
2	4505	1.093761283711	-0.059809410567422
2	4516	1.102059283711	-0.060639210567422
2	4526	1.102070284511	-0.060639232569022
2	4531	1.102144284511	-0.060639972569022
2	4543	1.102294284504	-0.060640272569008
2	4550	1.110592284504	-0.060723252569008
2	4579	1.110748419916	-0.060723564839832
2	4594	1.119046419916	-0.060806544839832
2	4620	1.119536419916	-0.060807524839832
2	4628	1.127834419916	-0.061637324839832
2	4638	1.127845419179	-0.061637346838358
2	4643	1.127919419179	-0.061638086838358
2	4653	1.128149419179	-0.061638546838358
2	4661	1.136447419179	-0.062468346838358
2	4671	1.136458417928	-0.062468368835856
2	4676	1.136532417928	-0.062469108835856
2	4687	1.136582417924	-0.062469208835848
2	4694	1.144880417924	-0.062552188835848
2	4723	1.145356552371	-0.062553141104742
2	4730	1.153654552371	-0.062636121104742
2	4756	1.154124552371	-0.062637061104742
2	4764	1.162422552371	-0.063466861104742
2	4774	1.162433549574	-0.063466883099148
2	4779	1.162507549574	-0.063467623099148
2	4789	1.162757549574	-0.063468123099148
2	4805	1.171055549574	-0.064297923099148
2	4815	1.171066546263	-0.064297945092526
2	4820	1.171140546263	-0.064298685092526
2	4830	1.171490546263	-0.064299385092526
2	4838	1.179788546263	-0.065129185092526
2	4848	1.179799542432	-0.065129207084864
2	4853	1.179873542432	-0.065129947084864
2	4863	1.180083542432	-0.065130367084864
2	4871	1.188381542432	-0.065960167084864
2	4881	1.188392538091	-0.065960189076182
2	4886	1.188466538091	-0.065960929076182
2	4896	1.188736538091	-0.065961469076182
2	4908	1.197034538091	-0.066791269076182
2	4918	1.197045533236	-0.066791291066472
2	4923	1.197119533236	-0.066792031066472
2	4935	1.197289533229	-0.066792371066458
2	4961	1.205587533229	-0.066875351066458
2	4970	1.205677533229	-0.066875531066458
2	4979	1.213975533229	-0.067705331066458
2	4989	1.213986527368	-0.067705353054736
2	4994	1.214060527368	-0.067706093054736
2	5006	1.214170527363	-0.067706313054726
2	5024	1.222468527363	-0.067789293054726
2	5053	1.222664659666	-0.067789685319332
2	5060	1.230962659666	-0.067872665319332
2	5087	1.231132659666	-0.067873005319332
2	5099	1.239430659666	-0.068702805319332
2	5109	1.239441652295	-0.06870282730459
2	5114	1.239515652295	-0.06870356730459
2	5126	1.239585652291	-0.068703707304582
2	5133	1.247883652291	-0.068786687304582
2	5160	1.248453652291	-0.068787827304582
2	5172	1.256751652291	-0.069617627304582
2	5182	1.256762643893	-0.069617649287786
2	5187	1.256836643893	-0.069618389287786
2	5197	1.256986643893	-0.069618689287786
2	5209	1.265284643893	-0.070448489287786
2	5219	1.265295634991	-0.070448511269982
2	5224	1.265369634991	-0.070449251269982
2	5234	1.265579634991	-0.070449671269982
2	5246	1.273877634991	-0.071279471269982
2	5256	1.27388862558	-0.07127949325116
2	5261	1.27396262558	-0.07128023325116
2	5273	1.274072625574	-0.071280453251148
2	5284	1.282370625574	-0.071363433251148
2	5295	1.282540625574	-0.071363773251148
2	5303	1.290838625574	-0.072193573251148
2	5313	1.29084961516	-0.07219359523032
2	5318	1.29092361516	-0.07219433523032
2	5330	1.291353615145	-0.07219519523029
2	5340	1.299651615145	-0.07227817523029
2	5367	1.299921615145	-0.07227871523029
2	5378	1.308219615145	-0.07310851523029
2	5388	1.308230603703	-0.073108537207406
2	5393	1.308304603703	-0.073109277207406
2	5405	1.308494603696	-0.073109657207392
2	5416	1.316792603696	-0.073192637207392
2	5445	1.316928733407	-0.073192909466814
2	5452	1.325226733407	-0.073275889466814
2	5479	1.325656733407	-0.073276749466814
2	5487	1.333954733407	-0.074106549466814
2	5497	1.333965720446	-0.074106571440892
2	5502	1.334039720446	-0.074107311440892
2	5512	1.334129720446	-0.074107491440892
2	5520	1.342427720446	-0.074937291440892
2	5534	1.342438706985	-0.07493731341397
2	5539	1.342512706985	-0.07493805341397
2	5551	1.34294270697	-0.07493891341394
2	5562	1.35124070697	-0.07502189341394
2	5589	1.35141070697	-0.07502223341394
2	5601	1.35970870697	-0.07585203341394
2	5611	1.359719692491	-0.075852055384982
2	5616	1.359793692491	-0.075852795384982
2	5626	1.360023692491	-0.075853255384982
2	5634	1.368321692491	-0.076683055384982
2	5644	1.368332677504	-0.076683077355008
2	5649	1.368406677504	-0.076683817355008
2	5661	1.368956677486	-0.076684917354972
2	5672	1.377254677486	-0.076767897354972
2	5698	1.377344677486	-0.076768077354972
2	5706	1.385642677486	-0.077597877354972
2	5716	1.385653661479	-0.077597899322958
2	5721	1.385727661479	-0.077598639322958
2	5731	1.386077661479	-0.077599339322958
2	5751	1.394375661479	-0.078429139322958
2	5761	1.394386644959	-0.078429161289918
2	5766	1.394460644959	-0.078429901289918
2	5778	1.394770644947	-0.078430521289894
2	5792	1.403068644947	-0.078513501289894
2	5802	1.403178644947	-0.078513721289894
2	5810	1.411476644947	-0.079343521289894
2	5820	1.411487627421	-0.079343543254842
2	5825	1.411561627421	-0.079344283254842
2	5837	1.412071627404	-0.079345303254808
2	5843	1.420369627404	-0.079428283254808
2	5872	1.420805754284	-0.079429155508568
2	5883	1.429103754284	-0.079512135508568
2	5910	1.429273754284	-0.079512475508568
2	5918	1.437571754284	-0.080342275508568
2	5928	1.437582735226	-0.080342297470452
2	5933	1.437656735226	-0.080343037470452
2	5943	1.438006735226	-0.080343737470452
2	5955	1.446304735226	-0.081173537470452
2	5965	1.446315715655	-0.08117355943131
2	5970	1.446389715655	-0.08117429943131
2	5982	1.446639715645	-0.08117479943129
2	5989	1.454937715645	-0.08125777943129
2	6016	1.455127715645	-0.08125815943129
2	6028	1.463425715645	-0.08208795943129
2	6038	1.46343669507	-0.08208798139014
2	6043	1.46351069507	-0.08208872139014
2	6053	1.46374069507	-0.08208918139014
2	6065	1.47203869507	-0.08291898139014
2	6075	1.472049673991	-0.082919003347982
2	6080	1.472123673991	-0.082919743347982
2	6094	1.472313673991	-0.082920123347982
2	6102	1.480611673991	-0.083749923347982
2	6112	1.48062265241	-0.08374994530482
2	6117	1.48069665241	-0.08375068530482
2	6129	1.480786652405	-0.08375086530481
2	6136	1.489084652405	-0.08383384530481
2	6163	1.489414652405	-0.08383450530481
2	6175	1.497712652405	-0.08466430530481
2	6185	1.497723629822	-0.084664327259644
2	6190	1.497797629822	-0.084665067259644
2	6200	1.498207629822	-0.084665887259644
2	6215	1.506505629822	-0.085495687259644
2	6225	1.506516606725	-0.08549570921345
2	6230	1.506590606725	-0.08549644921345
2	6240	1.506660606725	-0.08549658921345
2	6252	1.514958606725	-0.08632638921345
2	6262	1.514969583134	-0.086326411166268
2	6267	1.515043583134	-0.086327151166268
2	6277	1.515133583134	-0.086327331166268
2	6285	1.523431583134	-0.087157131166268
2	6295	1.523442559047	-0.087157153118094
2	6300	1.523516559047	-0.087157893118094
2	6312	1.523946559033	-0.087158753118066
2	6323	1.532244559033	-0.087241733118066
2	6334	1.532834559033	-0.087242913118066
2	6350	1.541132559033	-0.088072713118066
2	6360	1.541143533913	-0.088072735067826
2	6365	1.541217533913	-0.088073475067826
2	6377	1.541307533908	-0.088073655067816
2	6383	1.549605533908	-0.088156635067816
2	6412	1.549841657313	-0.088157107314626
2	6419	1.558139657313	-0.088240087314626
2	6448	1.558395780488	-0.088240599560976
2	6455	1.566693780488	-0.088323579560976
2	6482	1.566863780488	-0.088323919560976
2	6494	1.575161780488	-0.089153719560976
2	6504	1.575172753384	-0.089153741506768
2	6509	1.575246753384	-0.089154481506768
2	6519	1.575416753384	-0.089154821506768
2	6535	1.583714753384	-0.089984621506768
2	6545	1.58372572578	-0.08998464345156
2	6550	1.58379972578	-0.08998538345156
2	6562	1.583929725774	-0.089985643451548
2	6573	1.592227725774	-0.090068623451548
2	6602	1.592423848042	-0.090069015696084
2	6612	1.600721848042	-0.090151995696084
2	6641	1.601017970081	-0.090152587940162
2	6660	1.609315970081	-0.090235567940162
2	6687	1.609865970081	-0.090236667940162
2	6699	1.618163970081	-0.091066467940162
2	6709	1.618174940473	-0.091066489880946
2	6714	1.618248940473	-0.091067229880946
2	6726	1.618398940467	-0.091067529880934
2	6737	1.626696940467	-0.091150509880934
2	6766	1.627113061812	-0.091151342123624
2	6773	1.635411061812	-0.091234322123624
2	6800	1.635621061812	-0.091234742123624
2	6812	1.643919061812	-0.092064542123624
2	6822	1.643930030708	-0.092064564061416
2	6827	1.644004030708	-0.092065304061416
2	6837	1.644114030708	-0.092065524061416
2	6845	1.652412030708	-0.092895324061416
2	6855	1.652422999111	-0.092895345998222
2	6860	1.652496999111	-0.092896085998222
2	6872	1.652906999097	-0.092896905998194
2	6887	1.661204999097	-0.092979885998194
2	6914	1.661614999097	-0.092980705998194
2	6922	1.669912999097	-0.093810505998194
2	6932	1.669923966485	-0.09381052793297
2	6937	1.669997966485	-0.09381126793297
2	6947	1.670147966485	-0.09381156793297
2	6959	1.678445966485	-0.09464136793297
2	6969	1.678456933378	-0.094641389866756
2	6974	1.678530933378	-0.094642129866756
2	6986	1.678640933373	-0.094642349866746
2	6997	1.686938933373	-0.094725329866746
2	7028	1.687328933373	-0.094726109866746
2	7036	1.695626933373	-0.095555909866746
2	7046	1.695637899271	-0.095555931798542
2	7051	1.695711899271	-0.095556671798542
2	7063	1.696041899259	-0.095557331798518
2	7073	1.704339899259	-0.095640311798518
2	7102	1.704756018551	-0.095641144037102
2	7109	1.713054018551	-0.095724124037102
2	7138	1.713210137621	-0.095724436275242
2	7145	1.721508137621	-0.095807416275242
2	7174	1.722084256455	-0.09580856851291
2	7181	1.730382256455	-0.09589154851291
2	7210	1.730558375069	-0.095891900750138
2	7221	1.738856375069	-0.095974880750138
2	7254	1.73935249345	-0.0959758729869
2	7265	1.74765049345	-0.0960588529869
2	7292	1.74794049345	-0.0960594329869
2	7304	1.75623849345	-0.0968892329869
2	7314	1.756249455845	-0.09688925491169
2	7319	1.756323455845	-0.09688999491169
2	7331	1.756433455839	-0.096890214911678
2	7342	1.764731455839	-0.096973194911678
2	7369	1.765041455839	-0.096973814911678
2	7377	1.773339455839	-0.097803614911678
2	7387	1.773350417248	-0.097803636834496
2	7392	1.773424417248	-0.097804376834496
2	7402	1.773814417248	-0.097805156834496
2	7414	1.782112417248	-0.098634956834496
2	7424	1.782123378151	-0.098634978756302
2	7429	1.782197378151	-0.098635718756302
2	7441	1.782527378139	-0.098636378756278
2	7452	1.790825378139	-0.098719358756278
2	7465	1.790989377896	-0.098719686755792
2	7472	1.799287377896	-0.098802666755792
2	7501	1.799623494701	-0.098803338989402
2	7514	1.807921494701	-0.098886318989402
2	7525	1.808431494701	-0.098887338989402
2	7533	1.816729494701	-0.099717138989402
2	7543	1.816740453612	-0.099717160907224
2	7548	1.816814453612	-0.099717900907224
2	7560	1.816904453607	-0.099718080907214
2	7570	1.825202453607	-0.099801060907214
2	7597	1.825492453607	-0.099801640907214
2	7605	1.833790453607	-0.10063144090721
2	7615	1.833801411537	-0.10063146282307
2	7620	1.833875411537	-0.10063220282307
2	7630	1.834005411537	-0.10063246282307
2	7642	1.842303411537	-0.10146226282307
2	7652	1.842314368978	-0.10146228473796
2	7657	1.842388368978	-0.10146302473796
2	7669	1.842638368969	-0.10146352473794
2	7676	1.850936368969	-0.10154650473794
2	7694	1.851006368969	-0.10154664473794
2	7710	1.859304368969	-0.10237644473794
2	7720	1.85945532543	-0.10237674665086
2	7727	1.86775332543	-0.10245972665086
2	7754	1.86832332543	-0.10246086665086
2	7765	1.87662132543	-0.10329066665086
2	7775	1.876632280902	-0.1032906885618
2	7780	1.876706280902	-0.1032914285618
2	7790	1.877116280902	-0.1032922485618
2	7798	1.885414280902	-0.1041220485618
2	7808	1.88542523587	-0.10412207047174
2	7813	1.88549923587	-0.10412281047174
2	7823	1.88610923587	-0.10412403047174
2	7831	1.89440723587	-0.10495383047174
2	7841	1.894418190324	-0.10495385238065
2	7846	1.894492190324	-0.10495459238065
2	7858	1.89490219031	-0.10495541238062
2	7868	1.90320019031	-0.10503839238062
2	7895	1.90339019031	-0.10503877238062
2	7903	1.91168819031	-0.10586857238062
2	7913	1.911699143775	-0.10586859428755
2	7918	1.911773143775	-0.10586933428755
2	7928	1.912183143775	-0.10587015428755
2	7936	1.920481143775	-0.10669995428755
2	7946	1.920492096737	-0.10669997619347
2	7951	1.920566096737	-0.10670071619347
2	7963	1.920856096727	-0.10670129619345
2	7974	1.929154096727	-0.10678427619345
2	8001	1.929404096727	-0.10678477619345
2	8009	1.937702096727	-0.10761457619345
2	8019	1.937713048705	-0.10761459809741
2	8024	1.937787048705	-0.10761533809741
2	8036	1.9378970487	-0.1076155580974
2	8043	1.9461950487	-0.1076985380974
2	8070	1.9466250487	-0.1076993980974
2	8082	1.9549230487	-0.1085291980974
2	8092	1.954933999695	-0.10852921999939
2	8097	1.955007999695	-0.10852995999939
2	8109	1.955277999685	-0.10853049999937
2	8120	1.963575999685	-0.10861347999937
2	8149	1.963732112246	-0.10861379222449
2	8156	1.972030112246	-0.10869677222449
2	8185	1.97218622459	-0.10869708444918
2	8196	1.98048422459	-0.10878006444918
2	8223	1.98065422459	-0.10878040444918
2	8231	1.98895222459	-0.10961020444918
2	8241	1.988963173645	-0.10961022634729
2	8246	1.989037173645	-0.10961096634729
2	8256	1.989207173645	-0.10961130634729
2	8264	1.997505173645	-0.11044110634729
2	8274	1.997516122213	-0.11044112824443
2	8279	1.997590122213	-0.11044186824443
2	8295	1.997760122206	-0.11044220824441
2	8314	2.006058122206	-0.11052518824441
2	8343	2.006434233673	-0.11052594046735
2	8354	2.014732233673	-0.11060892046735
2	8381	2.014942233673	-0.11060934046735
2	8393	2.023240233673	-0.11143914046735
2	8403	2.023251180778	-0.11143916236156
2	8408	2.023325180778	-0.11143990236156
2	8420	2.023595180769	-0.11144044236154
2	8431	2.031893180769	-0.11152342236154
2	8458	2.032183180769	-0.11152400236154
2	8466	2.040481180769	-0.11235380236154
2	8476	2.040492126895	-0.11235382425379
2	8481	2.040566126895	-0.11235456425379
2	8491	2.040876126895	-0.11235518425379
2	8503	2.049174126895	-0.11318498425379
2	8513	2.049185072527	-0.11318500614505
2	8518	2.049259072527	-0.11318574614505
2	8530	2.049489072519	-0.11318620614504
2	8537	2.057787072519	-0.11326918614504
2	8563	2.057917072519	-0.11326944614504
2	8571	2.066215072519	-0.11409924614504
2	8581	2.066226017185	-0.11409926803437
2	8586	2.066300017185	-0.11410000803437
2	8598	2.066870017167	-0.11410114803433
2	8605	2.075168017167	-0.11418412803433
2	8634	2.075404126882	-0.11418460025376
2	8645	2.083702126882	-0.11426758025376
2	8674	2.084158236375	-0.11426849247275
2	8689	2.092456236375	-0.11435147247275
2	8716	2.093086236375	-0.11435273247275
2	8727	2.101384236375	-0.11518253247275
2	8737	2.10139517905	-0.1151825543581
2	8742	2.10146917905	-0.1151832943581
2	8754	2.101659179042	-0.11518367435808
2	8761	2.109957179042	-0.11526665435808
2	8788	2.110107179042	-0.11526695435808
2	8800	2.118405179042	-0.11609675435808
2	8810	2.118416120755	-0.11609677624151
2	8815	2.118490120755	-0.11609751624151
2	8825	2.118780120755	-0.11609809624151
2	8837	2.127078120755	-0.11692789624151
2	8847	2.127089061978	-0.11692791812396
2	8852	2.127163061978	-0.11692865812396
2	8862	2.127333061978	-0.11692899812396
2	8870	2.135631061978	-0.11775879812396
2	8880	2.135642002718	-0.11775882000544
2	8885	2.135716002718	-0.11775956000544
2	8895	2.136086002718	-0.11776030000544
2	8903	2.144384002718	-0.11859010000544
2	8913	2.144394942964	-0.11859012188593
2	8918	2.144468942964	-0.11859086188593
2	8929	2.14451894296	-0.11859096188592
2	8940	2.15281694296	-0.11867394188592
2	8967	2.15342694296	-0.11867516188592
2	8979	2.16172494296	-0.11950496188592
2	8989	2.161735882228	-0.11950498376446
2	8994	2.161809882228	-0.11950572376446
2	9006	2.162039882219	-0.11950618376444
2	9017	2.170337882219	-0.11958916376444
2	9044	2.170867882219	-0.11959022376444
2	9052	2.179165882219	-0.12042002376444
2	9062	2.179176820505	-0.12042004564101
2	9067	2.179250820505	-0.12042078564101
2	9079	2.179640820492	-0.12042156564098
2	9086	2.187938820492	-0.12050454564098
2	9113	2.188168820492	-0.12050500564098
2	9121	2.196466820492	-0.12133480564098
2	9131	2.196477757804	-0.12133482751561
2	9136	2.196551757804	-0.12133556751561
2	9148	2.196721757798	-0.1213359075156
2	9162	2.205019757798	-0.1214188875156
2	9188	2.205149757798	-0.1214191475156
2	9208	2.213447757798	-0.1222489475156
2	9218	2.213458694156	-0.12224896938831
2	9223	2.213532694156	-0.12224970938831
2	9235	2.213622694152	-0.1222498893883
2	9242	2.221920694152	-0.1223328693883
2	9269	2.222290694152	-0.1223336093883
2	9289	2.230588694152	-0.1231634093883
2	9299	2.230599629547	-0.12316343125909
2	9304	2.230673629547	-0.12316417125909
2	9314	2.230763629547	-0.12316435125909
2	9322	2.239061629547	-0.12399415125909
2	9332	2.239072564468	-0.12399417312894
2	9337	2.239146564468	-0.12399491312894
2	9347	2.239256564468	-0.12399513312894
2	9355	2.247554564468	-0.12482493312894
2	9365	2.247565498912	-0.12482495499782
2	9370	2.247639498912	-0.12482569499782
2	9382	2.247949498901	-0.1248263149978
2	9393	2.256247498901	-0.1249092949978
2	9422	2.256483604073	-0.12490976720815
2	9433	2.264781604073	-0.12499274720815
2	9451	2.264831604073	-0.12499284720815
2	9471	2.273129604073	-0.12582264720815
2	9481	2.273740537068	-0.12582386907414
2	9488	2.282038537068	-0.12590684907414
2	9517	2.2822746416	-0.1259073212832
2	9523	2.2905726416	-0.1259903012832
2	9550	2.2907426416	-0.1259906412832
2	9558	2.2990406416	-0.1268204412832
2	9568	2.299051573162	-0.12682046314632
2	9573	2.299125573162	-0.12682120314632
2	9585	2.299775573142	-0.12682250314628
2	9595	2.308073573142	-0.12690548314628
2	9621	2.308203573142	-0.12690574314628
2	9633	2.316501573142	-0.12773554314628
2	9643	2.31651250373	-0.12773556500746
2	9648	2.31658650373	-0.12773630500746
2	9660	2.316696503725	-0.12773652500745
2	9671	2.324994503725	-0.12781950500745
2	9700	2.325290607194	-0.12782009721439
2	9719	2.333588607194	-0.12790307721439
2	9746	2.334218607194	-0.12790433721439
2	9754	2.342516607194	-0.12873413721439
2	9764	2.342527536331	-0.12873415907266
2	9769	2.342601536331	-0.12873489907266
2	9781	2.342751536324	-0.12873519907265
2	9796	2.351049536324	-0.12881817907265
2	9825	2.351645639145	-0.12881937127829
2	9832	2.359943639145	-0.12890235127829
2	9850	2.359993639145	-0.12890245127829
2	9866	2.368291639145	-0.12973225127829
2	9876	2.368802566832	-0.12973327313366
2	9883	2.377100566832	-0.12981625313366
2	9912	2.377736669012	-0.12981752533802
2	9926	2.386034669012	-0.12990050533802
2	9953	2.386184669012	-0.12990080533802
2	9961	2.394482669012	-0.13073060533802
2	9971	2.394493595258	-0.13073062719052
2	9976	2.394567595258	-0.13073136719052
2	9986	2.394837595258	-0.13073190719052
2	10001	2.403135595258	-0.13156170719052
2	10011	2.403146521023	-0.13156172904205
2	10016	2.403220521023	-0.13156246904205
2	10026	2.403570521023	-0.13156316904205
2	10034	2.411868521023	-0.13239296904205
2	10044	2.411879446304	-0.13239299089261
2	10049	2.411953446304	-0.13239373089261
2	10059	2.412223446304	-0.13239427089261
2	10071	2.420521446304	-0.13322407089261
2	10081	2.420532371105	-0.13322409274221
2	10086	2.420606371105	-0.13322483274221
2	10098	2.421116371089	-0.13322585274218
2	10105	2.429414371089	-0.13330883274218
2	10132	2.429604371089	-0.13330921274218
2	10144	2.437902371089	-0.13413901274218
2	10154	2.437913294927	-0.13413903458985
2	10159	2.437987294927	-0.13413977458985
2	10169	2.438457294927	-0.13414071458985
2	10177	2.446755294927	-0.13497051458985
2	10187	2.446766218275	-0.13497053643655
2	10192	2.446840218275	-0.13497127643655
2	10204	2.44693021827	-0.13497145643654
2	10211	2.45522821827	-0.13505443643654
2	10238	2.45537821827	-0.13505473643654
2	10258	2.46367621827	-0.13588453643654
2	10268	2.463687140682	-0.13588455828136
2	10273	2.463761140682	-0.13588529828136
2	10283	2.463871140682	-0.13588551828136
2	10299	2.472169140682	-0.13671531828136
2	10309	2.472180062624	-0.13671534012525
2	10314	2.472254062624	-0.13671608012525
2	10326	2.472484062616	-0.13671654012523
2	10333	2.480782062616	-0.13679952012523
2	10360	2.481172062616	-0.13680030012523
2	10368	2.489470062616	-0.13763010012523
2	10378	2.489480983603	-0.13763012196721
2	10383	2.489554983603	-0.13763086196721
2	10393	2.489664983603	-0.13763108196721
2	10405	2.497962983603	-0.13846088196721
2	10415	2.497973904122	-0.13846090380824
2	10420	2.498047904122	-0.13846164380824
2	10432	2.498177904116	-0.13846190380823
2	10446	2.506475904116	-0.13854488380823
2	10472	2.506565904116	-0.13854506380823
2	10484	2.514863904116	-0.13937486380823
2	10494	2.514874823703	-0.13937488564741
2	10499	2.514948823703	-0.13937562564741
2	10509	2.515338823703	-0.13937640564741
2	10521	2.523636823703	-0.14020620564741
2	10531	2.523647742806	-0.14020622748561
2	10536	2.523721742806	-0.14020696748561
2	10548	2.524191742791	-0.14020790748558
2	10555	2.532489742791	-0.14029088748558
2	10581	2.532619742791	-0.14029114748558
2	10593	2.540917742791	-0.14112094748558
2	10603	2.540928660943	-0.14112096932189
2	10608	2.541002660943	-0.14112170932189
2	10620	2.541072660939	-0.14112184932188
2	10631	2.549370660939	-0.14120482932188
2	10649	2.549440660939	-0.14120496932188
2	10665	2.557738660939	-0.14203476932188
2	10675	2.558289578152	-0.1420358711563
2	10686	2.566587578152	-0.1421188511563
2	10715	2.566983675744	-0.14211964335149
2	10725	2.575281675744	-0.14220262335149
2	10754	2.575477773134	-0.14220301554627
2	10765	2.583775773134	-0.14228599554627
2	10794	2.584011870319	-0.14228646774064
2	10801	2.592309870319	-0.14236944774064
2	10828	2.592499870319	-0.14236982774064
2	10843	2.600797870319	-0.14319962774064
2	10853	2.600808785185	-0.14319964957037
2	10858	2.600882785185	-0.14320038957037
2	10868	2.601072785185	-0.14320076957037
2	10876	2.609370785185	-0.14403056957037
2	10907	2.610274785185	-0.14403237757037
2	10925	2.618572785185	-0.14486217757037
2	10940	2.619816785185	-0.14486466557037
2	10978	2.628114785185	-0.14569446557037
2	10987	2.632358785185	-0.14570295357037
2	11035	2.640656785185	-0.14653275357037
2	11042	2.643140785185	-0.14653772157037
2	11094	2.651438785185	-0.14736752157037
2	11150	2.656302785185	-0.14737724957037
2	11191	2.664600785185	-0.14820704957037
2	11198	2.667324785185	-0.14821249757037
2	11231	2.675622785185	-0.14904229757037
2	11242	2.681446785185	-0.14905394557037
2	11250	2.689744785185	-0.14988374557037
2	11257	2.690068785185	-0.14988439357037
2	11265	2.698366785185	-0.15071419357037
2	11272	2.698670785185	-0.15071480157037
2	11285	2.706968785185	-0.15154460157037
2	11295	2.709452785185	-0.15154956957037
2	11308	2.717750785185	-0.15237936957037
2	11315	2.720514785185	-0.15238489757037
2	11322	2.728812785185	-0.15321469757037
2	11329	2.731076785185	-0.15321922557037
2	11339	2.739374785185	-0.15404902557037
2	11346	2.745198785185	-0.15406067357037
2	11353	2.753496785185	-0.15489047357037
2	11364	2.770160785185	-0.15492380157037
2	11370	2.778458785185	-0.15575360157037
2	11381	2.796182785185	-0.15578904957037
2	11390	2.804480785185	-0.15661884957037
2	11397	2.804844785185	-0.15661957757037
2	11403	2.813142785185	-0.15744937757037
2	11410	2.813786785185	-0.15745066557037
2	11423	2.822084785185	-0.15828046557037
2	11430	2.822908785185	-0.15828211357037
2	11437	2.831206785185	-0.15911191357037
2	11445	2.833930785185	-0.15911736157037
2	11452	2.842228785185	-0.15994716157037
2	11463	2.852572785185	-0.15996784957037
2	11472	2.860870785185	-0.16079764957037
2	11479	2.861674785185	-0.16079925757037
2	11488	2.869972785185	-0.16162905757037
2	11503	2.886276785185	-0.16166166557037
2	11509	2.894574785185	-0.16249146557037
2	11526	2.909798785185	-0.16252191357037
2	11532	2.918096785185	-0.16335171357037
2	11539	2.918680785185	-0.16335288157037
2	11554	2.926978785185	-0.16418268157037
2	11562	2.928142785185	-0.16418500957037
2	11568	2.936440785185	-0.16501480957037
2	11576	2.939004785185	-0.16501993757037
2	11583	2.947302785185	-0.16584973757037
2	11590	2.950246785185	-0.16585562557037
2	11597	2.958544785185	-0.16668542557037
2	11604	2.962148785185	-0.16669263357037
2	11614	2.970446785185	-0.16752243357037
2	11625	2.982930785185	-0.16754740157037
2	11634	2.991228785185	-0.16837720157037
2	11650	3.005512785185	-0.16840576957037
2	11656	3.013810785185	-0.16923556957037
2	11666	3.020674785185	-0.16924929757037
2	11674	3.028972785185	-0.17007909757037
2	11681	3.029136785185	-0.17007942557037
2	11692	3.037434785185	-0.17090922557037
2	11699	3.038438785185	-0.17091123357037
2	11706	3.046736785185	-0.17174103357037
2	11714	3.049340785185	-0.17174624157037
2	11724	3.057638785185	-0.17257604157037
2	11731	3.061482785185	-0.17258372957037
2	11741	3.069780785185	-0.17341352957037
2	11751	3.077904785185	-0.17342977757037
2	11758	3.086202785185	-0.17425957757037
2	11768	3.092006785185	-0.17427118557037
2	11790	3.100304785185	-0.17510098557037
2	11798	3.112108785185	-0.17512459357037
2	11804	3.120406785185	-0.17595439357037
2	11818	3.134450785185	-0.17598248157037
2	11827	3.142748785185	-0.17681228157037
2	11835	3.143472785185	-0.17681372957037
2	11841	3.151770785185	-0.17764352957037
2	11849	3.152374785185	-0.17764473757037
2	11856	3.160672785185	-0.17847453757037
2	11868	3.162316785185	-0.17847782557037
2	11877	3.170614785185	-0.17930762557037
2	11886	3.172958785185	-0.17931231357037
2	11893	3.181256785185	-0.18014211357037
2	11901	3.185600785185	-0.18015080157037
2	11908	3.193898785185	-0.18098060157037
2	11923	3.206922785185	-0.18100664957037
2	11938	3.215220785185	-0.18183644957037
2	11949	3.224844785185	-0.18185569757037
2	11959	3.233142785185	-0.18268549757037
2	11967	3.233686785185	-0.18268658557037
2	11976	3.241984785185	-0.18351638557037
2	11984	3.242248785185	-0.18351691357037
2	11994	3.250546785185	-0.18434671357037
2	12002	3.250990785185	-0.18434760157037
2	12015	3.259288785185	-0.18517740157037
2	12024	3.261792785185	-0.18518240957037
2	12037	3.270090785185	-0.18601220957037
2	12045	3.273634785185	-0.18601929757037
2	12052	3.281932785185	-0.18684909757037
2	12066	3.284056785185	-0.18685334557037
2	12079	3.292354785185	-0.18768314557037
2	12093	3.300158785185	-0.18769875357037
2	12106	3.308456785185	-0.18852855357037
2	12114	3.318020785185	-0.18854768157037
2	12124	3.326318785185	-0.18937748157037
2	12136	3.339162785185	-0.18940316957037
2	12142	3.347460785185	-0.19023296957037
2	12150	3.347644785185	-0.19023333757037
2	12156	3.355942785185	-0.19106313757037
2	12164	3.356666785185	-0.19106458557037
2	12171	3.364964785185	-0.19189438557037
2	12180	3.366308785185	-0.19189707357037
2	12189	3.374606785185	-0.19272687357037
2	12198	3.379630785185	-0.19273692157037
2	12208	3.387928785185	-0.19356672157037
2	12222	3.397032785185	-0.19358492957037
2	12232	3.405330785185	-0.19441472957037
2	12241	3.416134785185	-0.19443633757037
2	12250	3.424432785185	-0.19526613757037
2	12261	3.427436785185	-0.19527214557037
2	12268	3.435734785185	-0.19610194557037
2	12279	3.441198785185	-0.19611287357037
2	12286	3.449496785185	-0.19694267357037
2	12294	3.449780785185	-0.19694324157037
2	12300	3.458078785185	-0.19777304157037
2	12308	3.458402785185	-0.19777368957037
2	12315	3.466700785185	-0.19860348957037
2	12323	3.467424785185	-0.19860493757037
2	12333	3.475722785185	-0.19943473757037
2	12342	3.480026785185	-0.19944334557037
2	12352	3.488324785185	-0.20027314557037
2	12363	3.497368785185	-0.20029123357037
2	12383	3.505666785185	-0.20112103357037
2	12400	3.518430785185	-0.20114656157037
2	12409	3.526728785185	-0.20197636157037
2	12417	3.527032785185	-0.20197696957037
2	12423	3.535330785185	-0.20280676957037
2	12438	3.541714785185	-0.20281953757037
2	12454	3.550012785185	-0.20364933757037
2	12462	3.550476785185	-0.20365026557037
2	12474	3.558774785185	-0.20448006557037
2	12482	3.559058785185	-0.20448063357037
2	12489	3.567356785185	-0.20531043357037
2	12497	3.567740785185	-0.20531120157037
2	12504	3.576038785185	-0.20614100157037
2	12512	3.576822785185	-0.20614256957037
2	12525	3.585120785185	-0.20697236957037
2	12534	3.586064785185	-0.20697425757037
2	12540	3.594362785185	-0.20780405757037
2	12548	3.594506785185	-0.20780434557037
2	12561	3.602804785185	-0.20863414557037
2	12571	3.615028785185	-0.20865859357037
2	12580	3.623326785185	-0.20948839357037
2	12588	3.632090785185	-0.20950592157037
2	12595	3.640388785185	-0.21033572157037
2	12603	3.641112785185	-0.21033716957037
2	12609	3.641634785185	-0.21038936957037
2	12618	3.641824785185	-0.21038974957037
2	12627	3.642314785185	-0.21043874957037
2	12638	3.642604785185	-0.21043932957037
2	12647	3.643094785185	-0.21048832957037
2	12660	3.643466195998	-0.210489072392
2	12671	3.643956195998	-0.210493972392
2	12702	3.644555606845	-0.21049517121369
2	12709	3.644629606845	-0.21049591121369
2	12767	3.647618611908	-0.21050188922382
2	12778	3.648108611908	-0.21050678922382
2	12811	3.64896802287	-0.21050850804574
2	12818	3.64904202287	-0.21050924804574
2	12827	3.649452022876	-0.21051006804575
2	12834	3.649910022876	-0.21051464804575
2	12925	3.649920022876	-0.21051466804575
2	12931	3.649994022876	-0.21052206804575
2	12938	3.650064022876	-0.21052220804575
2	12997	3.658362022876	-0.21135200804575
2	13011	3.658973433988	-0.21135323086798
2	13019	3.659431433988	-0.21135781086798
2	13025	3.659441433988	-0.21135783086798
2	13031	3.659515433988	-0.21136523086798
2	13038	3.659645433988	-0.21136549086798
2	13054	3.667943433988	-0.21219529086798
2	13066	3.667954845343	-0.21219531369069
2	13073	3.668028845343	-0.21219605369069
2	13084	3.668438845349	-0.2121968736907
2	13097	3.676736845349	-0.2122798536907
2	13119	3.676846845349	-0.2122800736907
2	13127	3.685144845349	-0.2131098736907
2	13139	3.685156257153	-0.21310989651431
2	13146	3.685230257153	-0.21311063651431
2	13152	3.685660257153	-0.21311149651431
2	13160	3.693958257153	-0.21394129651431
2	13172	3.693969669188	-0.21394131933838
2	13179	3.694043669188	-0.21394205933838
2	13185	3.694573669188	-0.21394311933838
2	13200	3.702871669188	-0.21477291933838
2	13212	3.702883081457	-0.21477294216291
2	13219	3.702957081457	-0.21477368216291
2	13225	3.703547081457	-0.21477486216291
2	13233	3.711845081457	-0.21560466216291
2	13245	3.711856493962	-0.21560468498792
2	13252	3.711930493962	-0.21560542498792
2	13258	3.712000493962	-0.21560556498792
2	13270	3.720298493962	-0.21643536498792
2	13282	3.720309906689	-0.21643538781338
2	13289	3.720383906689	-0.21643612781338
2	13299	3.720873906696	-0.21643710781339
2	13312	3.729171906696	-0.21652008781339
2	13339	3.72950731977	-0.21652075863954
2	13352	3.73780531977	-0.21660373863954
2	13375	3.73819531977	-0.21660451863954
2	13387	3.74649331977	-0.21743431863954
2	13399	3.746504733187	-0.21743434146637
2	13406	3.746578733187	-0.21743508146637
2	13412	3.746948733187	-0.21743582146637
2	13420	3.755246733187	-0.21826562146637
2	13432	3.755258146835	-0.21826564429367
2	13439	3.755332146835	-0.21826638429367
2	13449	3.755382146837	-0.21826648429367
2	13462	3.763680146837	-0.21834946429367
2	13485	3.763990146837	-0.21835008429367
2	13497	3.772288146837	-0.21917988429367
2	13509	3.772299560937	-0.21917990712187
2	13516	3.772373560937	-0.21918064712187
2	13526	3.772803560944	-0.21918150712189
2	13543	3.781101560944	-0.21926448712189
2	13566	3.781571560944	-0.21926542712189
2	13574	3.789869560944	-0.22009522712189
2	13586	3.789880975511	-0.22009524995102
2	13593	3.789954975511	-0.22009598995102
2	13599	3.790384975511	-0.22009684995102
2	13607	3.798682975511	-0.22092664995102
2	13619	3.798694390312	-0.22092667278062
2	13626	3.798768390312	-0.22092741278062
2	13636	3.799058390317	-0.22092799278063
2	13648	3.807356390317	-0.22101097278063
2	13662	3.807406390317	-0.22101107278063
2	13686	3.815704390317	-0.22184087278063
2	13698	3.816355805581	-0.22184217561116
2	13707	3.824653805581	-0.22192515561116
2	13730	3.825223805581	-0.22192629561116
2	13745	3.833521805581	-0.22275609561116
2	13757	3.833533221312	-0.22275611844262
2	13764	3.833607221312	-0.22275685844262
2	13770	3.833737221312	-0.22275711844262
2	13778	3.842035221312	-0.22358691844262
2	13790	3.842046637271	-0.22358694127454
2	13797	3.842120637271	-0.22358768127454
2	13807	3.842310637275	-0.22358806127455
2	13816	3.850608637275	-0.22367104127455
2	13839	3.850778637275	-0.22367138127455
2	13859	3.859076637275	-0.22450118127455
2	13871	3.859088053691	-0.22450120410738
2	13878	3.859162053691	-0.22450194410738
2	13888	3.859252053693	-0.22450212410739
2	13901	3.867550053693	-0.22458510410739
2	13928	3.868005470455	-0.22458601494091
2	13937	3.876303470455	-0.22466899494091
2	13964	3.876498887449	-0.2246693857749
2	13977	3.884796887449	-0.2247523657749
2	13999	3.884886887449	-0.2247525457749
2	14011	3.893184887449	-0.2255823457749
2	14023	3.893196304785	-0.22558236860957
2	14030	3.893270304785	-0.22558310860957
2	14036	3.893440304785	-0.22558344860957
2	14051	3.901738304785	-0.22641324860957
2	14063	3.901749722351	-0.2264132714447
2	14070	3.901823722351	-0.2264140114447
2	14080	3.901973722354	-0.22641431144471
2	14089	3.910271722354	-0.22649729144471
2	14112	3.910481722354	-0.22649771144471
2	14128	3.918779722354	-0.22732751144471
2	14140	3.918791140382	-0.22732753428076
2	14147	3.918865140382	-0.22732827428076
2	14157	3.918975140385	-0.22732849428077
2	14166	3.927273140385	-0.22741147428077
2	14189	3.927463140385	-0.22741185428077
2	14197	3.935761140385	-0.22824165428077
2	14209	3.935772558874	-0.22824167711775
2	14216	3.935846558874	-0.22824241711775
2	14226	3.936196558874	-0.22824311711775
2	14245	3.944494558874	-0.22907291711775
2	14246	3.94449455888	-0.22907291711778
2	14277	3.945109977728	-0.22907414795547
2	14286	3.953407977728	-0.22915712795547
2	14309	3.953557977728	-0.22915742795547
2	14322	3.961855977728	-0.22998722795547
2	14334	3.961867396927	-0.22998725079387
2	14341	3.961941396927	-0.22998799079387
2	14347	3.961991396927	-0.22998809079387
2	14359	3.970289396927	-0.23081789079387
2	14371	3.970300816357	-0.23081791363273
2	14378	3.970374816357	-0.23081865363273
2	14384	3.970584816357	-0.23081907363273
2	14396	3.978882816357	-0.23164887363273
2	14408	3.978894236021	-0.23164889647206
2	14415	3.978968236021	-0.23164963647206
2	14421	3.979098236021	-0.23164989647206
2	14433	3.987396236021	-0.23247969647206
2	14445	3.987407655919	-0.23247971931186
2	14452	3.987481655919	-0.23248045931186
2	14462	3.987931655926	-0.23248135931187
2	14479	3.996229655926	-0.23256433931187
2	14506	3.996825076188	-0.23256553015239
2	14523	4.005123076188	-0.23264851015239
2	14546	4.005473076188	-0.23264921015239
2	14554	4.013771076188	-0.23347901015239
2	14566	4.013782496809	-0.23347903299364
2	14573	4.013856496809	-0.23347977299364
2	14583	4.014366496809	-0.23348079299364
2	14598	4.022664496809	-0.23431059299364
2	14599	4.022664496817	-0.23431059299368
2	14630	4.023059917802	-0.23431138383565
2	14639	4.031357917802	-0.23439436383565
2	14661	4.031447917802	-0.23439454383565
2	14674	4.039745917802	-0.23522434383565
2	14686	4.039757339138	-0.23522436667832
2	14693	4.039831339138	-0.23522510667832
2	14703	4.040141339144	-0.23522572667833
2	14712	4.048439339144	-0.23530870667833
2	14739	4.048674760839	-0.23530917752172
2	14756	4.056972760839	-0.23539215752172
2	14778	4.057062760839	-0.23539233752172
2	14790	4.065360760839	-0.23622213752172
2	14802	4.065372182884	-0.23622216036581
2	14809	4.065446182884	-0.23622290036581
2	14819	4.065576182887	-0.23622316036582
2	14832	4.073874182887	-0.23630614036582
2	14855	4.074284182887	-0.23630696036582
2	14863	4.082582182887	-0.23713676036582
2	14875	4.082593605409	-0.23713678321086
2	14882	4.082667605409	-0.23713752321086
2	14892	4.082777605411	-0.23713774321086
2	14909	4.091075605411	-0.23722072321086
2	14931	4.091185605411	-0.23722094321086
2	14939	4.099483605411	-0.23805074321086
2	14951	4.099495028403	-0.23805076605685
2	14958	4.099569028403	-0.23805150605685
2	14968	4.099639028403	-0.23805164605685
2	14990	4.107937028403	-0.23888144605685
2	14991	4.107937028405	-0.23888144605686
2	15022	4.108312451752	-0.23888219690355
2	15031	4.116610451752	-0.23896517690355
2	15058	4.116745875338	-0.23896544775072
2	15068	4.125043875338	-0.23904842775072
2	15095	4.12521929916	-0.23904877859837
2	15104	4.13351729916	-0.23913175859837
2	15126	4.13382729916	-0.23913237859837
2	15134	4.14212529916	-0.23996217859837
2	15146	4.142136723342	-0.23996220144673
2	15153	4.142210723342	-0.23996294144673
2	15163	4.142580723342	-0.23996368144673
2	15182	4.150878723342	-0.24079348144673
2	15183	4.150878723348	-0.24079348144676
2	15209	4.151082723342	-0.24079388944675
2	15217	4.159380723342	-0.24162368944675
2	15229	4.159392148007	-0.24162371229608
2	15236	4.159466148007	-0.24162445229608
2	15246	4.159676148011	-0.24162487229609
2	15260	4.167974148011	-0.24170785229609
2	15282	4.168424148011	-0.24170875229609
2	15290	4.176722148011	-0.24253855229609
2	15302	4.176733573164	-0.24253857514639
2	15309	4.176807573164	-0.24253931514639
2	15319	4.176857573166	-0.2425394151464
2	15336	4.185155573166	-0.2426223951464
2	15358	4.185245573166	-0.2426225751464
2	15366	4.193543573166	-0.2434523751464
2	15378	4.193554998793	-0.24345239799765
2	15385	4.193628998793	-0.24345313799765
2	15391	4.193818998793	-0.24345351799765
2	15402	4.202116998793	-0.24428331799765
2	15414	4.202128424662	-0.24428334084939
2	15421	4.202202424662	-0.24428408084939
2	15427	4.202472424662	-0.24428462084939
2	15435	4.210770424662	-0.24511442084939
2	15447	4.210781850775	-0.24511444370162
2	15454	4.210855850775	-0.24511518370162
2	15464	4.211285850782	-0.24511604370163
2	15473	4.219583850782	-0.24519902370163
2	15500	4.219739277264	-0.24519933455459
2	15513	4.228037277264	-0.24528231455459
2	15536	4.228447277264	-0.24528313455459
2	15544	4.236745277264	-0.24611293455459
2	15556	4.236756704112	-0.24611295740829
2	15563	4.236830704112	-0.24611369740829
2	15573	4.237180704112	-0.24611439740829
2	15588	4.245478704112	-0.24694419740829
2	15589	4.245478704118	-0.24694419740832
2	15620	4.245814131337	-0.24694486826276
2	15629	4.254112131337	-0.24702784826276
2	15651	4.254202131337	-0.24702802826276
2	15668	4.262500131337	-0.24785782826276
2	15680	4.262511558917	-0.24785785111792
2	15687	4.262585558917	-0.24785859111792
2	15697	4.262775558921	-0.24785897111793
2	15710	4.271073558921	-0.24794195111793
2	15724	4.271143558921	-0.24794209111793
2	15740	4.279441558921	-0.24877189111793
2	15747	4.280565558921	-0.24877413911793
2	15755	4.288863558921	-0.24960393911793
2	15767	4.288874987253	-0.24960396197459
2	15774	4.288948987253	-0.24960470197459
2	15784	4.28931898726	-0.2496054419746
2	15796	4.29761698726	-0.2496884219746
2	15818	4.29818698726	-0.2496895619746
2	15833	4.30648498726	-0.2505193619746
2	15845	4.306496416097	-0.25051938483228
2	15852	4.306570416097	-0.25052012483228
2	15858	4.306820416097	-0.25052062483228
2	15866	4.315118416097	-0.25135042483228
2	15878	4.31512984518	-0.25135044769044
2	15885	4.31520384518	-0.25135118769044
2	15891	4.31559384518	-0.25135196769044
2	15911	4.32389184518	-0.25218176769044
2	15923	4.323903274515	-0.25218179054911
2	15930	4.323977274515	-0.25218253054911
2	15936	4.324127274515	-0.25218283054911
2	15948	4.332425274515	-0.25301263054911
2	15960	4.332436704096	-0.25301265340828
2	15967	4.332510704096	-0.25301339340828
2	15977	4.332760704101	-0.25301389340829
2	15998	4.341058704101	-0.25309687340829
2	16021	4.341388704101	-0.25309753340829
2	16033	4.349686704101	-0.25392733340829
2	16045	4.349698134179	-0.25392735626844
2	16052	4.349772134179	-0.25392809626844
2	16058	4.349942134179	-0.25392843626844
2	16066	4.358240134179	-0.25475823626844
2	16078	4.358251564503	-0.25475825912909
2	16085	4.358325564503	-0.25475899912909
2	16091	4.358575564503	-0.25475949912909
2	16103	4.366873564503	-0.25558929912909
2	16115	4.366884995077	-0.25558932199024
2	16122	4.366958995077	-0.25559006199024
2	16132	4.36708899508	-0.25559032199024
2	16145	4.37538699508	-0.25567330199024
2	16168	4.37579699508	-0.25567412199024
2	16176	4.38409499508	-0.25650392199024
2	16188	4.384106426151	-0.25650394485239
2	16195	4.384180426151	-0.25650468485239
2	16205	4.384430426155	-0.25650518485239
2	16214	4.392728426155	-0.25658816485239
2	16237	4.393318426155	-0.25658934485239
2	16252	4.401616426155	-0.25741914485239
2	16264	4.401627857734	-0.25741916771555
2	16271	4.401701857734	-0.25741990771555
2	16281	4.40207185774	-0.25742064771556
2	16294	4.41036985774	-0.25750362771556
2	16308	4.41043985774	-0.25750376771556
2	16332	4.41873785774	-0.25833356771556
2	16344	4.41896928982	-0.25833403057972
2	16361	4.42726728982	-0.25841701057972
2	16384	4.42789728982	-0.25841827057972
2	16395	4.43619528982	-0.25924807057972
2	16407	4.436206722405	-0.25924809344489
2	16414	4.436280722405	-0.25924883344489
2	16424	4.436330722407	-0.2592489334449
2	16433	4.444628722407	-0.2593319134449
2	16456	4.445198722407	-0.2593330534449
2	16468	4.453496722407	-0.2601628534449
2	16480	4.453508155496	-0.26016287631108
2	16487	4.453582155496	-0.26016361631108
2	16497	4.453972155496	-0.26016439631108
2	16512	4.462270155496	-0.26099419631108
2	16513	4.462270155503	-0.26099419631111
2	16544	4.463005588981	-0.26099566717807
2	16553	4.471303588981	-0.26107864717807
2	16576	4.471673588981	-0.26107938717807
2	16585	4.479971588981	-0.26190918717807
2	16597	4.479983022845	-0.26190921004579
2	16604	4.480057022845	-0.26190995004579
2	16614	4.480587022854	-0.26191101004581
2	16631	4.488885022854	-0.26199399004581
2	16654	4.489035022854	-0.26199429004581
2	16670	4.497333022854	-0.26282409004581
2	16682	4.497344457228	-0.26282411291456
2	16689	4.497418457228	-0.26282485291456
2	16695	4.497908457228	-0.26282583291456
2	16706	4.506206457228	-0.26365563291456
2	16718	4.506217891862	-0.26365565578383
2	16725	4.506291891862	-0.26365639578383
2	16739	4.506681891869	-0.26365717578384
2	16752	4.514979891869	-0.26374015578384
2	16779	4.515395326891	-0.26374098665389
2	16788	4.523693326891	-0.26382396665389
2	16802	4.523743326891	-0.26382406665389
2	16818	4.532041326891	-0.26465386665389
2	16829	4.532172762289	-0.26465412952468
2	16838	4.540470762289	-0.26473710952468
2	16861	4.540760762289	-0.26473768952468
2	16868	4.549058762289	-0.26556748952468
2	16880	4.549070198188	-0.26556751239648
2	16887	4.549144198188	-0.26556825239648
2	16897	4.54921419819	-0.26556839239648
2	16910	4.55751219819	-0.26565137239648
2	16932	4.55760219819	-0.26565155239648
2	16940	4.56590019819	-0.26648135239648
2	16952	4.565911634587	-0.26648137526928
2	16959	4.565985634587	-0.26648211526928
2	16965	4.566355634587	-0.26648285526928
2	16977	4.574653634587	-0.26731265526928
2	16989	4.574665071244	-0.26731267814259
2	16996	4.574739071244	-0.26731341814259
2	17002	4.575109071244	-0.26731415814259
2	17014	4.583407071244	-0.26814395814259
2	17026	4.583418508161	-0.26814398101643
2	17033	4.583492508161	-0.26814472101643
2	17043	4.583702508166	-0.26814514101644
2	17052	4.592000508166	-0.26822812101644
2	17079	4.592395945468	-0.26822891189104
2	17091	4.600693945468	-0.26831189189104
2	17118	4.601029383028	-0.26831256276616
2	17127	4.609327383028	-0.26839554276616
2	17154	4.609742820846	-0.2683963736418
2	17167	4.618040820846	-0.2684793536418
2	17189	4.618130820846	-0.2684795336418
2	17197	4.626428820846	-0.2693093336418
2	17209	4.626440259046	-0.2693093565182
2	17216	4.626514259046	-0.2693100965182
2	17222	4.626844259046	-0.2693107565182
2	17230	4.635142259046	-0.2701405565182
2	17242	4.635153697506	-0.27014057939512
2	17249	4.635227697506	-0.27014131939512
2	17259	4.635877697517	-0.27014261939514
2	17268	4.644175697517	-0.27022559939514
2	17291	4.644725697517	-0.27022669939514
2	17299	4.653023697517	-0.27105649939514
2	17311	4.653035136512	-0.27105652227313
2	17318	4.653109136512	-0.27105726227313
2	17328	4.653619136521	-0.27105828227315
2	17337	4.661917136521	-0.27114126227315
2	17360	4.662347136521	-0.27114212227315
2	17368	4.670645136521	-0.27197192227315
2	17380	4.670656576045	-0.27197194515219
2	17387	4.670730576045	-0.27197268515219
2	17393	4.671180576045	-0.27197358515219
2	17401	4.679478576045	-0.27280338515219
2	17413	4.679490015834	-0.27280340803177
2	17420	4.679564015834	-0.27280414803177
2	17426	4.679614015834	-0.27280424803177
2	17434	4.687912015834	-0.27363404803177
2	17446	4.687923455877	-0.27363407091186
2	17453	4.687997455877	-0.27363481091186
2	17463	4.68806745588	-0.27363495091186
2	17476	4.69636545588	-0.27371793091186
2	17499	4.69685545588	-0.27371891091186
2	17518	4.70515345588	-0.27454871091186
2	17530	4.705164896443	-0.27454873379299
2	17537	4.705238896443	-0.27454947379299
2	17547	4.705348896446	-0.274549693793
2	17560	4.713646896446	-0.274632673793
2	17583	4.714056896446	-0.274633493793
2	17591	4.722354896446	-0.275463293793
2	17603	4.722366337529	-0.27546331667516
2	17610	4.722440337529	-0.27546405667516
2	17616	4.722510337529	-0.27546419667516
2	17624	4.730808337529	-0.27629399667516
2	17636	4.730819778868	-0.27629401955784
2	17643	4.730893778868	-0.27629475955784
2	17649	4.730943778868	-0.27629485955784
2	17657	4.739241778868	-0.27712465955784
2	17669	4.739253220462	-0.27712468244103
2	17676	4.739327220462	-0.27712542244103
2	17682	4.739817220462	-0.27712640244103
2	17690	4.748115220462	-0.27795620244103
2	17702	4.748126662326	-0.27795622532476
2	17709	4.748200662326	-0.27795696532476
2	17715	4.748550662326	-0.27795766532476
2	17727	4.756848662326	-0.27878746532476
2	17739	4.756860104455	-0.27878748820901
2	17746	4.756934104455	-0.27878822820901
2	17756	4.757164104459	-0.27878868820902
2	17765	4.765462104459	-0.27887166820902
2	17788	4.765612104459	-0.27887196820902
2	17800	4.773910104459	-0.27970176820902
2	17812	4.773921547107	-0.27970179109432
2	17819	4.773995547107	-0.27970253109432
2	17829	4.774165547111	-0.27970287109433
2	17842	4.782463547111	-0.27978585109433
2	17869	4.782738990149	-0.2797864019804
2	17878	4.791036990149	-0.2798693819804
2	17901	4.791606990149	-0.2798705219804
2	17909	4.799904990149	-0.2807003219804
2	17921	4.79991643359	-0.28070034486728
2	17928	4.79999043359	-0.28070108486728
2	17937	4.80032043359	-0.28070174486728
2	17945	4.80861843359	-0.28153154486728
2	17957	4.808629877297	-0.2815315677547
2	17964	4.808703877297	-0.2815323077547
2	17970	4.809153877297	-0.2815332077547
2	17982	4.817451877297	-0.2823630077547
2	17994	4.817463321274	-0.28236303064265
2	18001	4.817537321274	-0.28236377064265
2	18011	4.817727321278	-0.28236415064266
2	18020	4.826025321278	-0.28244713064266
2	18043	4.826575321278	-0.28244823064266
2	18055	4.834873321278	-0.28327803064266
2	18067	4.834884765789	-0.28327805353168
2	18074	4.834958765789	-0.28327879353168
2	18080	4.835068765789	-0.28327901353168
2	18092	4.843366765789	-0.28410881353168
2	18104	4.84337821056	-0.28410883642122
2	18111	4.84345221056	-0.28410957642122
2	18117	4.84352221056	-0.28410971642122
2	18129	4.85182021056	-0.28493951642122
2	18141	4.851831655591	-0.28493953931129
2	18148	4.851905655591	-0.28494027931129
2	18158	4.852155655591	-0.28494077931129
2	18173	4.860453655591	-0.28577057931129
2	18174	4.860453655596	-0.28577057931131
2	18205	4.86112910103	-0.28577193020218
2	18218	4.86942710103	-0.28585491020218
2	18245	4.869902546738	-0.28585586109359
2	18263	4.878200546738	-0.28593884109359
2	18286	4.878730546738	-0.28593990109359
2	18298	4.887028546738	-0.28676970109359
2	18310	4.887039992854	-0.28676972398583
2	18317	4.887113992854	-0.28677046398583
2	18323	4.887323992854	-0.28677088398583
2	18331	4.895621992854	-0.28760068398583
2	18343	4.895633439235	-0.28760070687859
2	18350	4.895707439235	-0.28760144687859
2	18360	4.895897439239	-0.2876018268786
2	18372	4.904195439239	-0.2876848068786
2	18399	4.904350886016	-0.28768511777215
2	18412	4.912648886016	-0.28776809777215
2	18439	4.912944333057	-0.28776868866623
2	18448	4.921242333057	-0.28785166866623
2	18475	4.921577780366	-0.28785233956085
2	18484	4.929875780366	-0.28793531956085
2	18511	4.930291227943	-0.287936150456
2	18528	4.938589227943	-0.288019130456
2	18555	4.938864675789	-0.2880196813517
2	18564	4.947162675789	-0.2881026613517
2	18587	4.947492675789	-0.2881033213517
2	18595	4.955790675789	-0.2889331213517
2	18607	4.955802124036	-0.28893314424819
2	18614	4.955876124036	-0.28893388424819
2	18624	4.955946124039	-0.2889340242482
2	18633	4.964244124039	-0.2890170042482
2	18656	4.964834124039	-0.2890181842482
2	18672	4.973132124039	-0.2898479842482
2	18684	4.973143572827	-0.28984800714577
2	18691	4.973217572827	-0.28984874714577
2	18697	4.973427572827	-0.28984916714577
2	18705	4.981725572827	-0.29067896714577
2	18717	4.981737021883	-0.29067899004388
2	18724	4.981811021883	-0.29067973004388
2	18734	4.982101021889	-0.2906803100439
2	18747	4.990399021889	-0.2907632900439
2	18770	4.990669021889	-0.2907638300439
2	18782	4.998967021889	-0.2915936300439
2	18794	4.998978471485	-0.29159365294309
2	18801	4.999052471485	-0.29159439294309
2	18811	4.999142471487	-0.29159457294309
2	18828	5.007440471487	-0.29167755294309
2	18855	5.007755921482	-0.29167818384308
2	18864	5.016053921482	-0.29176116384308
2	18886	5.016163921482	-0.29176138384308
2	18894	5.024461921482	-0.29259118384308
2	18906	5.024473371876	-0.29259120674387
2	18913	5.024547371876	-0.29259194674387
2	18919	5.024657371876	-0.29259216674387
2	18927	5.032955371876	-0.29342196674387
2	18939	5.032966822537	-0.29342198964519
2	18946	5.033040822537	-0.29342272964519
2	18952	5.033230822537	-0.29342310964519
2	18960	5.041528822537	-0.29425290964519
2	18972	5.041540273468	-0.29425293254705
2	18979	5.041614273468	-0.29425367254705
2	18985	5.042204273468	-0.29425485254705
2	18997	5.050502273468	-0.29508465254705
2	19009	5.050513724681	-0.29508467544948
2	19016	5.050587724681	-0.29508541544948
2	19022	5.050657724681	-0.29508555544948
2	19038	5.058955724681	-0.29591535544948
2	19050	5.05896717616	-0.29591537835244
2	19057	5.05904117616	-0.29591611835244
2	19067	5.059191176164	-0.29591641835245
2	19084	5.067489176164	-0.29599939835245
2	19107	5.067719176164	-0.29599985835245
2	19115	5.076017176164	-0.29682965835245
2	19127	5.076028628181	-0.29682968125648
2	19134	5.076102628181	-0.29683042125648
2	19140	5.076252628181	-0.29683072125648
2	19152	5.084550628181	-0.29766052125648
2	19164	5.084562080468	-0.29766054416105
2	19171	5.084636080468	-0.29766128416105
2	19177	5.084926080468	-0.29766186416105
2	19185	5.093224080468	-0.29849166416105
2	19197	5.093235533029	-0.29849168706618
2	19204	5.093309533029	-0.29849242706618
2	19214	5.093579533035	-0.29849296706619
2	19226	5.101877533035	-0.29857594706619
2	19249	5.102207533035	-0.29857660706619
2	19257	5.110505533035	-0.29940640706619
2	19269	5.110516986144	-0.29940642997241
2	19276	5.110590986144	-0.29940716997241
2	19282	5.110900986144	-0.29940778997241
2	19294	5.119198986144	-0.30023758997241
2	19306	5.119210439528	-0.30023761287917
2	19313	5.119284439528	-0.30023835287917
2	19323	5.119534439533	-0.30023885287918
2	19332	5.127832439533	-0.30032183287918
2	19359	5.127967893325	-0.30032210378677
2	19368	5.136265893325	-0.30040508378677
2	19391	5.136555893325	-0.30040566378677
2	19403	5.144853893325	-0.30123546378677
2	19415	5.144865347525	-0.30123548669517
2	19422	5.144939347525	-0.30123622669517
2	19432	5.145029347525	-0.30123640669517
2	19451	5.153327347525	-0.30206620669517
2	19452	5.153327347528	-0.30206620669518
2	19483	5.153702802136	-0.3020669576044
2	19500	5.162000802136	-0.3021499376044
2	19523	5.162230802136	-0.3021503976044
2	19536	5.170528802136	-0.3029801976044
2	19548	5.170540257155	-0.30298022051444
2	19555	5.170614257155	-0.30298096051444
2	19561	5.170744257155	-0.30298122051444
2	19581	5.179042257155	-0.30381102051444
2	19593	5.179053712446	-0.30381104342502
2	19600	5.179127712446	-0.30381178342502
2	19610	5.17931771245	-0.30381216342503
2	19619	5.18761571245	-0.30389514342503
2	19641	5.18772571245	-0.30389536342503
2	19649	5.19602371245	-0.30472516342503
2	19661	5.196035168285	-0.3047251863367
2	19668	5.196109168285	-0.3047259263367
2	19678	5.196519168292	-0.30472674633671
2	19694	5.204817168292	-0.30480972633671
2	19721	5.205092624546	-0.30481027724922
2	19730	5.213390624546	-0.30489325724922
2	19753	5.213540624546	-0.30489355724922
2	19765	5.221838624546	-0.30572335724922
2	19777	5.221850081208	-0.30572338016254
2	19784	5.221924081208	-0.30572412016254
2	19790	5.222034081208	-0.30572434016254
2	19802	5.230332081208	-0.30655414016254
2	19814	5.230343538143	-0.30655416307641
2	19821	5.230417538143	-0.30655490307641
2	19831	5.230907538152	-0.30655588307643
2	19840	5.239205538152	-0.30663886307643
2	19867	5.239580995512	-0.30663961399115
2	19880	5.247878995512	-0.30672259399115
2	19903	5.248108995512	-0.30672305399115
2	19919	5.256406995512	-0.30755285399115
2	19931	5.256418453286	-0.3075528769067
2	19938	5.256492453286	-0.3075536169067
2	19944	5.256842453286	-0.3075543169067
2	19956	5.265140453286	-0.3083841169067
2	19968	5.265151911342	-0.30838413982281
2	19975	5.265225911342	-0.30838487982281
2	19985	5.265475911348	-0.30838537982282
2	19994	5.273773911348	-0.30846835982282
2	20017	5.273943911348	-0.30846869982282
2	20025	5.282241911348	-0.30929849982282
2	20037	5.282253369957	-0.30929852274004
2	20044	5.282327369957	-0.30929926274004
2	20054	5.282897369967	-0.30930040274006
2	20067	5.291195369967	-0.30938338274006
2	20094	5.291550829006	-0.30938409365814
2	20107	5.299848829006	-0.30946707365814
2	20137	5.300264288327	-0.30946790457678
2	20150	5.308562288327	-0.30955088457678
2	20173	5.308732288327	-0.30955122457678
2	20189	5.317030288327	-0.31038102457678
2	20201	5.317041748064	-0.31038104749626
2	20208	5.317115748064	-0.31038178749626
2	20214	5.317585748064	-0.31038272749626
2	20226	5.325883748064	-0.31121252749626
[...]
64	30798	7.751601242826	3
64	30805	7.759899242826	1
64	30817	7.759909766211	3
64	30823	7.759983766211	1
64	30834	7.760274792235	3
64	30845	7.768572792235	1
64	30857	7.76858331569	3
64	30863	7.76865731569	1
64	30874	7.768928341996	3
64	30889	7.777226341996	1
64	30901	7.777236865524	3
64	30907	7.777310865524	1
64	30934	7.785885892118	3
64	30939	7.785959892118	1
64	30967	7.794539442761	3
64	30972	7.794613442761	1
64	30984	7.794783442761	3
64	30994	7.803081442761	1
64	31006	7.803091966505	3
64	31012	7.803165966505	1
64	31039	7.811680993936	3
64	31044	7.811754993936	1
64	31056	7.811884993936	3
64	31069	7.820182993936	1
64	31085	7.820193517824	3
64	31090	7.820267517824	1
64	31119	7.828836545807	3
64	31124	7.828910545807	1
64	31136	7.829020545807	3
64	31148	7.837318545807	1
64	31160	7.837329069842	3
64	31166	7.837403069842	1
64	31193	7.84587809838	3
64	31198	7.84595209838	1
64	31226	7.854371651472	3
64	31231	7.854445651472	1
64	31263	7.86326520492	3
64	31268	7.86333920492	1
64	31300	7.871738758725	3
64	31305	7.871812758725	1
64	31333	7.880712312888	3
64	31338	7.880786312888	1
64	31370	7.889305867412	3
64	31375	7.889379867412	1
64	31407	7.897839422288	3
64	31412	7.897913422288	1
64	31443	7.906572977519	3
64	31448	7.906646977519	1
64	31460	7.906736977519	3
64	31467	7.915034977519	1
64	31479	7.915045502242	3
64	31485	7.915119502242	1
64	31520	7.923734533286	3
64	31525	7.923808533286	1
64	31537	7.924338533286	3
64	31548	7.932636533286	1
64	31560	7.93264705817	3
64	31572	7.93272105817	1
64	31590	7.941096089772	3
64	31602	7.949394089772	1
64	31614	7.94940461481	3
64	31620	7.94947861481	1
64	31654	7.957953646952	3
64	31659	7.958027646952	1
64	31671	7.958417646952	3
64	31686	7.966715646952	1
64	31698	7.966726172152	3
64	31704	7.966800172152	1
64	31743	7.975435204852	3
64	31748	7.975509204852	1
64	31776	7.984328763286	3
64	31781	7.984402763286	1
64	31809	7.992962322083	3
64	31814	7.993036322083	1
64	31854	8.001815881242	3
64	31859	8.001889881242	1
64	31887	8.010369440763	3
64	31892	8.010443440763	1
64	31920	8.018923000638	3
64	31925	8.018997000638	1
64	31937	8.019287000638	3
64	31944	8.027585000638	1
64	31956	8.027595526418	3
64	31962	8.027669526418	1
64	31989	8.036084561054	3
64	31994	8.036158561054	1
64	32006	8.036328561054	3
64	32017	8.044626561054	1
64	32029	8.044637087001	3
64	32035	8.044711087001	1
64	32046	8.045062122174	3
64	32057	8.053360122174	1
64	32069	8.053370648206	3
64	32075	8.053444648206	1
64	32086	8.053535683657	3
64	32093	8.061833683657	1
64	32105	8.061844209773	3
64	32111	8.061918209773	1
64	32138	8.070473245499	3
64	32143	8.070547245499	1
64	32155	8.070837245499	3
64	32166	8.079135245499	1
64	32178	8.079145771787	3
64	32184	8.079219771787	1
64	32195	8.079710808054	3
64	32202	8.088008808054	1
64	32214	8.088019334432	3
64	32220	8.088093334432	1
64	32247	8.096928370992	3
64	32252	8.097002370992	1
64	32264	8.097332370992	3
64	32278	8.105630370992	1
64	32290	8.105640897548	3
64	32296	8.105714897548	1
64	32307	8.105805934653	3
64	32314	8.114103934653	1
64	32326	8.114114461296	3
64	32332	8.114188461296	1
64	32367	8.122563498671	3
64	32372	8.122637498671	1
64	32384	8.122767498671	3
64	32391	8.131065498671	1
64	32403	8.131076025488	3
64	32409	8.131150025488	1
64	32444	8.139865063405	3
64	32449	8.139939063405	1
64	32461	8.140049063405	3
64	32472	8.148347063405	1
64	32484	8.1483575904	3
64	32490	8.1484315904	1
64	32520	8.156766628853	3
64	32525	8.156840628853	1
64	32557	8.165420194833	3
64	32562	8.165494194833	1
64	32590	8.174213761179	3
64	32595	8.174287761179	1
64	32623	8.182907327891	3
64	32628	8.182981327891	1
64	32656	8.191760894972	3
64	32661	8.191834894972	1
64	32692	8.200254462418	3
64	32697	8.200328462418	1
64	32725	8.20872803022	3
64	32730	8.20880203022	1
64	32742	8.20917203022	3
64	32753	8.21747003022	1
64	32765	8.21748055795	3
64	32771	8.21755455795	1
64	32782	8.217725598568	3
64	32797	8.226023598568	1
64	32809	8.226034126391	3
64	32815	8.226108126391	1
64	32826	8.226159167276	3
64	32833	8.234457167276	1
64	32845	8.23446769519	3
64	32851	8.23454169519	1
64	32886	8.242936736342	3
64	32891	8.243010736342	1
64	32919	8.251510305943	3
64	32924	8.251584305943	1
64	32936	8.252134305943	3
64	32947	8.260432305943	1
64	32959	8.260442834143	3
64	32971	8.260516834143	1
64	32995	8.269171876103	3
64	33010	8.277469876103	1
64	33022	8.277480404492	3
64	33028	8.277554404492	1
64	33039	8.277805446981	3
64	33045	8.286103446981	1
64	33057	8.286113975467	3
64	33063	8.286187975467	1
64	33074	8.286299018224	3
64	33085	8.294597018224	1
64	33097	8.294607546805	3
64	33103	8.294681546805	1
64	33137	8.30309658983	3
64	33142	8.30317058983	1
64	33154	8.30368058983	3
64	33169	8.31197858983	1
64	33181	8.311989118608	3
64	33187	8.312063118608	1
64	33198	8.312154162168	3
64	33213	8.320452162168	1
64	33225	8.320462691042	3
64	33231	8.320536691042	1
64	33262	8.329091734871	3
64	33267	8.329165734871	1
64	33279	8.329255734871	3
64	33286	8.337553734871	1
64	33298	8.337564263942	3
64	33304	8.337638263942	1
64	33334	8.345973308295	3
64	33339	8.346047308295	1
64	33351	8.346277308295	3
64	33362	8.354575308295	1
64	33374	8.354585837563	3
64	33386	8.354659837563	1
64	33406	8.36327488244	3
64	33413	8.37157288244	1
64	33425	8.371583411906	3
64	33431	8.371657411906	1
64	33457	8.380132457312	3
64	33462	8.380206457312	1
64	33474	8.380496457312	3
64	33487	8.388794457312	1
64	33503	8.388804986981	3
64	33508	8.388878986981	1
64	33541	8.397248032907	3
64	33546	8.397322032907	1
64	33578	8.405981609052	3
64	33583	8.406055609052	1
64	33595	8.406465609052	3
64	33606	8.414763609052	1
64	33618	8.41477413903	3
64	33624	8.41484813903	1
64	33635	8.415079185759	3
64	33642	8.423377185759	1
64	33654	8.42338771584	3
64	33660	8.42346171584	1
64	33687	8.432256762845	3
64	33692	8.432330762845	1
64	33704	8.432400762845	3
64	33715	8.440698762845	1
64	33727	8.440709293135	3
64	33733	8.440783293135	1
64	33744	8.440934340659	3
64	33759	8.449232340659	1
64	33771	8.449242871053	3
64	33777	8.449316871053	1
64	33804	8.457771918843	3
64	33809	8.457845918843	1
64	33837	8.466365497571	3
64	33842	8.466439497571	1
64	33854	8.466649497571	3
64	33861	8.474947497571	1
64	33873	8.47495802828	3
64	33879	8.47503202828	1
64	33906	8.48370707686	3
64	33911	8.48378107686	1
64	33923	8.48397107686	3
64	33930	8.49226907686	1
64	33942	8.492279607784	3
64	33948	8.492353607784	1
64	33959	8.492564656882	3
64	33969	8.500862656882	1
64	33981	8.500873187912	3
64	33987	8.500947187912	1
64	33998	8.501018237272	3
64	34017	8.509316237272	1
64	34029	8.509326768408	3
64	34035	8.509400768408	1
64	34062	8.517815818028	3
64	34067	8.517889818028	1
64	34095	8.526329399328	3
64	34100	8.526403399328	1
64	34132	8.534922980996	3
64	34137	8.534996980996	1
64	34149	8.535146980996	3
64	34156	8.543444980996	1
64	34168	8.543455512562	3
64	34174	8.543529512562	1
64	34185	8.543640563215	3
64	34196	8.551938563215	1
64	34208	8.55194909489	3
64	34214	8.55202309489	1
64	34225	8.5522141458	3
64	34236	8.5605121458	1
64	34248	8.560522677585	3
64	34254	8.560596677585	1
64	34281	8.569171728762	3
64	34286	8.569245728762	1
64	34298	8.569775728762	3
64	34305	8.578073728762	1
64	34317	8.578084260773	3
64	34323	8.578158260773	1
64	34334	8.578329312473	3
64	34341	8.586627312473	1
64	34353	8.586637844595	3
64	34359	8.586711844595	1
64	34393	8.595446896564	3
64	34398	8.595520896564	1
64	34429	8.603960481208	3
64	34434	8.604034481208	1
64	34466	8.612674066225	3
64	34471	8.612748066225	1
64	34503	8.621147651613	3
64	34508	8.621221651613	1
64	34520	8.621451651613	3
64	34527	8.629749651613	1
64	34539	8.629760184301	3
64	34545	8.629834184301	1
64	34556	8.630085237557	3
64	34579	8.638383237557	1
64	34591	8.638393770359	3
64	34597	8.638467770359	1
64	34608	8.638518823875	3
64	34615	8.646816823875	1
64	34627	8.646827356789	3
64	34633	8.646901356789	1
64	34660	8.655696410569	3
64	34665	8.655770410569	1
64	34677	8.655960410569	3
64	34684	8.664258410569	1
64	34696	8.664268943717	3
64	34702	8.664342943717	1
64	34729	8.672797998012	3
64	34734	8.672871998012	1
64	34762	8.681331586006	3
64	34767	8.681405586006	1
64	34779	8.681535586006	3
64	34800	8.689833586006	1
64	34816	8.689844119499	3
64	34821	8.689918119499	1
64	34834	8.690189174555	3
64	34841	8.698487174555	1
64	34853	8.698497708166	3
64	34865	8.698571708166	1
64	34889	8.707206763481	3
64	34900	8.715504763481	1
64	34912	8.715515297325	3
64	34918	8.715589297325	1
64	34943	8.724064353151	3
64	34948	8.724138353151	1
64	34960	8.724448353151	3
64	34967	8.732746353151	1
64	34979	8.732756887234	3
64	34985	8.732830887234	1
64	35011	8.741345943574	3
64	35016	8.741419943574	1
64	35056	8.750019534554	3
64	35061	8.750093534554	1
64	35073	8.750283534554	3
64	35080	8.758581534554	1
64	35092	8.758592068997	3
64	35098	8.758666068997	1
64	35125	8.767361126107	3
64	35130	8.767435126107	1
64	35142	8.767525126107	3
64	35165	8.775823126107	1
64	35177	8.775833660792	3
64	35183	8.775907660792	1
64	35210	8.784322718406	3
64	35215	8.784396718406	1
64	35251	8.792876311259	3
64	35256	8.792950311259	1
64	35268	8.793220311259	3
64	35284	8.801518311259	1
64	35300	8.801528846308	3
64	35305	8.801602846308	1
64	35318	8.801993904678	3
64	35341	8.810291904678	1
64	35353	8.810302439853	3
64	35359	8.810376439853	1
64	35387	8.819031498491	3
64	35392	8.819105498491	1
64	35424	8.827725092867	3
64	35429	8.827799092867	1
64	35457	8.836358687622	3
64	35462	8.836432687622	1
64	35498	8.844832282753	3
64	35503	8.844906282753	1
64	35539	8.853565878262	3
64	35544	8.853639878262	1
64	35572	8.862239474152	3
64	35577	8.862313474152	1
64	35589	8.862543474152	3
64	35596	8.870841474152	1
64	35608	8.870852010204	3
64	35614	8.870926010204	1
64	35641	8.879481070619	3
64	35646	8.879555070619	1
64	35658	8.879745070619	3
64	35677	8.888043070619	1
64	35689	8.888053606925	3
64	35695	8.888127606925	1
64	35722	8.896742667844	3
64	35727	8.896816667844	1
64	35758	8.905196265629	3
64	35763	8.905270265629	1
64	35775	8.905360265629	3
64	35782	8.913658265629	1
64	35794	8.913668802315	3
64	35800	8.913742802315	1
64	35827	8.922177863978	3
64	35832	8.922251863978	1
64	35860	8.930631462884	3
64	35865	8.930705462884	1
64	35877	8.931055462884	3
64	35884	8.939353462884	1
64	35896	8.939363999955	3
64	35902	8.939437999955	1
64	35929	8.94807306237	3
64	35934	8.94814706237	1
64	35946	8.94847706237	3
64	35953	8.95677506237	1
64	35965	8.956785599705	3
64	35971	8.956859599705	1
64	35998	8.965414662625	3
64	36003	8.965488662625	1
64	36014	8.965538662625	3
64	36026	8.973836662625	1
64	36038	8.97384720022	3
64	36050	8.97392120022	1
64	36094	8.990798263818	3
64	36099	8.990872263818	1
64	36126	8.999431865761	3
64	36131	8.999505865761	1
64	36143	8.999575865761	3
64	36158	9.007873865761	1
64	36170	9.00788440388	3
64	36176	9.00795840388	1
64	36187	9.008089468271	3
64	36194	9.016387468271	1
64	36206	9.016398006521	3
64	36212	9.016472006521	1
64	36239	9.024907071162	3
64	36244	9.024981071162	1
64	36256	9.025431071162	3
64	36263	9.033729071162	1
64	36275	9.033739609683	3
64	36281	9.033813609683	1
64	36308	9.042208674822	3
64	36313	9.042282674822	1
64	36345	9.051042279052	3
64	36350	9.051116279052	1
64	36361	9.051166279052	3
64	36369	9.059464279052	1
64	36381	9.059474817978	3
64	36387	9.059548817978	1
64	36417	9.067903883855	3
64	36422	9.067977883855	1
64	36438	9.068247883855	3
64	36449	9.076545883855	1
64	36461	9.076556423052	3
64	36467	9.076630423052	1
64	36478	9.076721489416	3
64	36485	9.085019489416	1
64	36497	9.085030028748	3
64	36503	9.085104028748	1
64	36514	9.085315095355	3
64	36524	9.093613095355	1
64	36536	9.093623634824	3
64	36542	9.093697634824	1
64	36576	9.102212701683	3
64	36581	9.102286701683	1
64	36613	9.110866308581	3
64	36618	9.110940308581	1
64	36630	9.111190308581	3
64	36637	9.119488308581	1
64	36649	9.119498848466	3
64	36655	9.119572848466	1
64	36690	9.127987916061	3
64	36695	9.128061916061	1
64	36723	9.136741524111	3
64	36728	9.136815524111	1
64	36740	9.136885524111	3
64	36755	9.145183524111	1
64	36767	9.145194064413	3
64	36773	9.145268064413	1
64	36804	9.153763132741	3
64	36809	9.153837132741	1
64	36837	9.16229674194	3
64	36842	9.16237074194	1
64	36874	9.171330351532	3
64	36879	9.171404351532	1
64	36891	9.171554351532	3
64	36910	9.179852351532	1
64	36922	9.179862892404	3
64	36928	9.179936892404	1
64	36955	9.188671961719	3
64	36960	9.188745961719	1
64	36988	9.197605572491	3
64	36993	9.197679572491	1
64	37028	9.206619183665	3
64	37033	9.206693183665	1
64	37045	9.206803183665	3
64	37056	9.215101183665	1
64	37068	9.215111725123	3
64	37074	9.215185725123	1
64	37085	9.215616795422	3
64	37092	9.223914795422	1
64	37104	9.223925337027	3
64	37110	9.223999337027	1
64	37136	9.232334407577	3
64	37141	9.232408407577	1
64	37181	9.241008020303	3
64	37186	9.241082020303	1
64	37198	9.241732020303	3
64	37219	9.250030020303	1
64	37235	9.250040562349	3
64	37240	9.250114562349	1
64	37253	9.25066563363	3
64	37264	9.25896363363	1
64	37276	9.258974175828	3
64	37282	9.259048175828	1
64	37310	9.267503247364	3
64	37315	9.267577247364	1
64	37343	9.276016861669	3
64	37348	9.276090861669	1
64	37376	9.284570476359	3
64	37381	9.284644476359	1
64	37409	9.293084091434	3
64	37414	9.293158091434	1
64	37457	9.301857706899	3
64	37462	9.301931706899	1
64	37474	9.302061706899	3
64	37481	9.310359706899	1
64	37493	9.310370249979	3
64	37499	9.310444249979	1
64	37526	9.319139322957	3
64	37531	9.319213322957	1
64	37567	9.327612939592	3
64	37572	9.327686939592	1
64	37600	9.336466556619	3
64	37605	9.336540556619	1
64	37617	9.337210556619	3
64	37638	9.345508556619	1
64	37654	9.34551910031	3
64	37659	9.34559310031	1
64	37688	9.354102174246	3
64	37693	9.354176174246	1
64	37705	9.354326174246	3
64	37717	9.362624174246	1
64	37729	9.362634718239	3
64	37735	9.362708718239	1
64	37746	9.363239792658	3
64	37761	9.371537792658	1
64	37773	9.371548336808	3
64	37779	9.371622336808	1
64	37790	9.372073411474	3
64	37801	9.380371411474	1
64	37813	9.38038195578	3
64	37819	9.38045595578	1
64	37830	9.38074703069	3
64	37837	9.38904503069	1
64	37849	9.389055575151	3
64	37861	9.389129575151	1
64	37904	9.406246650502	3
64	37909	9.406320650502	1
64	37921	9.406590650502	3
64	37927	9.414888650502	1
64	37939	9.414899195424	3
64	37951	9.414973195424	1
64	37975	9.423608271287	3
64	37986	9.431906271287	1
64	37998	9.431916816515	3
64	38004	9.431990816515	1
64	38015	9.432121892844	3
64	38021	9.440419892844	1
64	38033	9.440430438226	3
64	38039	9.440504438226	1
64	38074	9.4492395148	3
64	38079	9.4493135148	1
64	38091	9.4494235148	3
64	38106	9.4577215148	1
64	38118	9.457732060496	3
64	38124	9.457806060496	1
64	38151	9.466261137538	3
64	38156	9.466335137538	1
64	38184	9.474974760858	3
64	38189	9.475048760858	1
64	38201	9.475578760858	3
64	38212	9.483876760858	1
64	38224	9.483887307032	3
64	38230	9.483961307032	1
64	38241	9.484152384784	3
64	38260	9.492450384784	1
64	38272	9.492460931116	3
64	38278	9.492534931116	1
64	38312	9.501210009111	3
64	38317	9.501284009111	1
64	38328	9.501334009111	3
64	38344	9.509632009111	1
64	38356	9.50964255576	3
64	38362	9.50971655576	1
64	38373	9.509847634213	3
64	38384	9.518145634213	1
64	38396	9.518156181019	3
64	38402	9.518230181019	1
64	38433	9.526805259711	3
64	38438	9.526879259711	1
64	38450	9.527069259711	3
64	38457	9.535367259711	1
64	38469	9.535377806838	3
64	38475	9.535451806838	1
64	38502	9.543826885993	3
64	38507	9.543900885993	1
64	38519	9.543970885993	3
64	38534	9.552268885993	1
64	38546	9.552279433437	3
64	38552	9.552353433437	1
64	38579	9.56122851306	3
64	38584	9.56130251306	1
64	38596	9.56155251306	3
64	38603	9.56985051306	1
64	38615	9.569861060835	3
64	38621	9.569935060835	1
64	38648	9.578770140932	3
64	38653	9.578844140932	1
64	38665	9.579014140932	3
64	38672	9.587312140932	1
64	38684	9.587322689038	3
64	38690	9.587396689038	1
64	38701	9.587547769592	3
64	38720	9.595845769592	1
64	38732	9.595856317859	3
64	38738	9.595930317859	1
64	38772	9.604725398656	3
64	38777	9.604799398656	1
64	38789	9.604989398656	3
64	38796	9.613287398656	1
64	38808	9.613297947257	3
64	38814	9.613371947257	1
64	38841	9.621847028515	3
64	38846	9.621921028515	1
64	38874	9.630720658966	3
64	38879	9.630794658966	1
64	38908	9.639454289822	3
64	38913	9.639528289822	1
64	38946	9.648267921082	3
64	38951	9.648341921082	1
64	38987	9.656701552739	3
64	38992	9.656775552739	1
64	39020	9.665595184795	3
64	39025	9.665669184795	1
64	39053	9.674288817256	3
64	39058	9.674362817256	1
64	39090	9.682842450116	3
64	39095	9.682916450116	1
64	39107	9.683006450116	3
64	39118	9.691304450116	1
64	39130	9.691315000228	3
64	39136	9.691389000228	1
64	39147	9.691700083564	3
64	39154	9.699998083564	1
64	39169	9.700008633847	3
64	39175	9.700082633847	1
64	39186	9.700393717414	3
64	39197	9.708691717414	1
64	39209	9.708702267869	3
64	39215	9.708776267869	1
64	39242	9.717491351677	3
64	39247	9.717565351677	1
64	39287	9.72594498653	3
64	39292	9.72601898653	1
64	39304	9.72620898653	3
64	39315	9.73450698653	1
64	39327	9.734517537496	3
64	39333	9.734591537496	1
64	39368	9.743186621984	3
64	39373	9.743260621984	1
64	39385	9.743430621984	3
64	39396	9.751728621984	1
64	39408	9.751739173293	3
64	39414	9.751813173293	1
64	39425	9.751944258228	3
64	39432	9.760242258228	1
64	39444	9.760252809707	3
64	39450	9.760326809707	1
64	39461	9.760577894866	3
64	39468	9.768875894866	1
64	39480	9.768886446518	3
64	39486	9.768960446518	1
64	39525	9.777475531911	3
64	39530	9.777549531911	1
64	39558	9.786009169546	3
64	39563	9.786083169546	1
64	39595	9.794442807575	3
64	39600	9.794516807575	1
64	39631	9.802916445997	3
64	39636	9.802990445997	1
64	39664	9.811350084812	3
64	39669	9.811424084812	1
64	39697	9.820123724027	3
64	39702	9.820197724027	1
64	39730	9.82891736365	3
64	39735	9.82899136365	1
64	39767	9.837471003676	3
64	39772	9.837545003676	1
64	39800	9.846024644101	3
64	39805	9.846098644101	1
64	39833	9.854458284922	3
64	39838	9.854532284922	1
64	39850	9.854842284922	3
64	39869	9.863140284922	1
64	39881	9.863150838494	3
64	39887	9.863224838494	1
64	39898	9.863275926344	3
64	39905	9.871573926344	1
64	39917	9.871584480091	3
64	39923	9.871658480091	1
64	39949	9.880013568163	3
64	39954	9.880087568163	1
64	39966	9.880497568163	3
64	39985	9.888795568163	1
64	39997	9.888806122268	3
64	40003	9.888880122268	1
64	40030	9.897675210796	3
64	40035	9.897749210796	1
64	40066	9.906368854033	3
64	40071	9.906442854033	1
64	40083	9.906772854033	3
64	40090	9.915070854033	1
64	40102	9.915081408687	3
64	40108	9.915155408687	1
64	40119	9.915226497881	3
64	40126	9.923524497881	1
64	40138	9.923535052712	3
64	40144	9.923609052712	1
64	40175	9.932384142136	3
64	40180	9.932458142136	1
64	40191	9.932508142136	3
64	40199	9.940806142136	1
64	40211	9.940816697331	3
64	40217	9.940890697331	1
64	40228	9.940981787188	3
64	40235	9.949279787188	1
64	40247	9.949290342562	3
64	40253	9.949364342562	1
64	40264	9.949555432637	3
64	40275	9.957853432637	1
64	40287	9.957863988193	3
64	40293	9.957937988193	1
64	40320	9.966813078502	3
64	40325	9.966887078502	1
64	40353	9.975346724972	3
64	40358	9.975420724972	1
64	40370	9.975890724972	3
64	40377	9.984188724972	1
64	40389	9.984199281089	3
64	40395	9.984273281089	1
64	40426	9.992928372067	3
64	40431	9.993002372067	1
64	40443	9.993292372067	3
65	12742	3.647017305101	1
65	12743	3.647017305101	2
65	12748	3.647507305101	1
65	12748	3.647507305101	0
65	12974	3.653550593256	1
65	12975	3.653550593256	2
65	12981	3.654040593256	1
65	12981	3.654040593256	0
