version 2
run BaseConfig-0-20170216-11:45:25-1216
attr N 2
attr configname BaseConfig
attr datetime 20170216-11:45:25
attr experiment BaseConfig
attr inifile omnetpp.ini
attr iterationvars $N=2
attr iterationvars2 "$N=2, $repetition=0"
attr measurement $N=2
attr network Base
attr processid 1216
attr repetition 0
attr replication #0
attr resultdir results
attr runnumber 0
attr seedset 0
param *.configurator.addStaticRoutes false
param *.configurator.config "xml(\"<config><interface hosts='**' address='10.0.0.x' netmask='255.255.255.0'/><autoroute metric='errorRate'/></config>\")"
param *.configurator.optimizeRoutes false
param *.node*[*].wlan[*].mac.address "\"auto\""
param *.node*[*].wlan[*].mac.headerLength 10B
param *.node*[*].wlan[*].mac.mtu 0B
param *.node*[*].wlan[*].mac.numSlots 2*${N}
param *.node*[*].wlan[*].mac.reservedMobileSlots 2
param *.node*[*].wlan[*].mac.slotDuration 100ms
param *.node*[*].wlan[*].macType "\"LMacLayer\""
param *.node*[*].wlan[*].radio.transmitter.bitrate 2Mbps
param *.node*[*].wlan[*].radio.transmitter.communicationRange 200m
param *.node*[*].wlan[*].radio.transmitter.detectionRange 0m
param *.node*[*].wlan[*].radio.transmitter.headerBitLength 100b
param *.node*[*].wlan[*].radio.transmitter.preambleDuration 0s
param *.node*[*].wlan[*].radioType "\"IdealRadio\""
param *.node*[*].wlan[*].typename "\"WirelessNic\""
param *.node*[*].wlan[0].radio.receiver.ignoreInterference true
param *.node*[*].wlan[0].radio.transmitter.interferenceRange 0m
param *.nodeMaster[*].numUdpApps 1
param *.nodeMaster[*].routingTable.netmaskRoutes "\"\""
param *.nodeMaster[0].mobility.initFromDisplayString false
param *.nodeMaster[0].mobility.initialX 250m
param *.nodeMaster[0].mobility.initialY 100m
param *.nodeMaster[0].mobility.initialZ 0m
param *.nodeMaster[0].mobilityType "\"StationaryMobility\""
param *.nodeMaster[0].udpApp[0].localPort 5000
param *.nodeMaster[0].udpApp[0].typename "\"UDPSink\""
param *.nodeMaster[1..].**.cx 250m
param *.nodeMaster[1..].**.cy 100m
param *.nodeMaster[1..].**.cz 0m
param *.nodeMaster[1..].**.r 50m
param *.nodeMaster[1..].**.startAngle "parentIndex() * (360deg/(${N}-1))"
param *.nodeMaster[1..].mobilityType "\"CircleMobility\""
param *.nodeMaster[1..].udpApp[0].destAddresses "\"nodeMaster[0]\""
param *.nodeMaster[1..].udpApp[0].destPort 5000
param *.nodeMaster[1..].udpApp[0].messageLength exponential(128B)
param *.nodeMaster[1..].udpApp[0].packetName "\"UDPData\""
param *.nodeMaster[1..].udpApp[0].sendInterval exponential(10s)
param *.nodeMaster[1..].udpApp[0].startTime 5s
param *.nodeMaster[1..].udpApp[0].typename "\"UDPBasicApp\""
param *.numMasters ${N=2}
param *.radioMediumType "\"IdealRadioMedium\""
param *.visualizer.dataLinkVisualizer.packetNameFilter "\"UDPData*\""
param *.visualizer.networkRouteVisualizer.packetNameFilter "\"UDPData*\""
param *.visualizer.physicalLinkVisualizer.packetNameFilter "\"UDPData*\""

vector 13  Base.nodeMaster[0].wlan[0].radio  radioMode:vector  ETV
attr interpolationmode  sample-hold
attr source  radioModeChanged
attr title  "Radio mode, vector"
vector 30  Base.nodeMaster[1].wlan[0].radio  radioMode:vector  ETV
attr interpolationmode  sample-hold
attr source  radioModeChanged
attr title  "Radio mode, vector"
vector 14  Base.nodeMaster[0].wlan[0].radio  receptionState:vector  ETV
attr interpolationmode  sample-hold
attr source  receptionStateChanged
attr title  "Radio reception state, vector"
vector 31  Base.nodeMaster[1].wlan[0].radio  receptionState:vector  ETV
attr interpolationmode  sample-hold
attr source  receptionStateChanged
attr title  "Radio reception state, vector"
vector 32  Base.nodeMaster[1].wlan[0].radio  transmissionState:vector  ETV
attr interpolationmode  sample-hold
attr source  transmissionStateChanged
attr title  "Radio transmission state, vector"
vector 15  Base.nodeMaster[0].wlan[0].radio  transmissionState:vector  ETV
attr interpolationmode  sample-hold
attr source  transmissionStateChanged
attr title  "Radio transmission state, vector"
vector 17  Base.nodeMaster[1].udpApp[0]  sentPk:vector(packetBytes)  ETV
attr interpolationmode  none
attr source  sentPk
attr title  "packets sent, vector(packetBytes)"
vector 20  Base.nodeMaster[1].udp  sentPk:vector(packetBytes)  ETV
attr interpolationmode  none
attr source  sentPk
attr title  "packets sent, vector(packetBytes)"
vector 8  Base.nodeMaster[0].networkLayer.arp  sentReq:vector  ETV
attr title  "ARP request sent, vector"
vector 26  Base.nodeMaster[1].networkLayer.arp  sentReply:vector  ETV
attr title  "ARP replies sent, vector"
vector 4  Base.nodeMaster[0].udp  rcvdPk:vector(packetBytes)  ETV
attr interpolationmode  none
attr source  rcvdPk
attr title  "packets received, vector(packetBytes)"
vector 5  Base.nodeMaster[0].udp  passedUpPk:vector(count)  ETV
attr interpolationmode  none
attr title  "packets passed up, vector(count)"
vector 0  Base.nodeMaster[0].udpApp[0]  rcvdPk:vector(packetBytes)  ETV
attr interpolationmode  none
attr source  rcvdPk
attr title  "packets received, vector(packetBytes)"
vector 1  Base.nodeMaster[0].udpApp[0]  endToEndDelay:vector  ETV
attr interpolationmode  none
attr source  messageAge(rcvdPk)
attr title  "end-to-end delay, vector"
attr unit  s
vector 2  Base.nodeMaster[0].udpApp[0]  rcvdPkSeqNo:vector  ETV
attr interpolationmode  none
attr source  appPkSeqNo(rcvdPk)
attr title  "received packet sequence number, vector"
0	4710	6.903095002048	101
0	5598	18.502572258574	100
0	5959	23.302857941953	62
0	6327	27.704103682745	284
0	8771	60.903456832217	83
0	10005	77.302663180088	107
0	11931	103.302736805415	52
0	12761	114.102991668841	228
0	13969	129.703592622011	261
0	14331	134.502395110497	94
0	15275	146.901906675103	16
0	16047	156.90361180982	98
0	17137	171.302373969763	68
0	17295	173.302418373523	170
0	17482	175.703597236699	107
0	17526	176.102841017537	50
0	17656	177.703725156321	121
0	18457	188.102881960067	62
0	20181	211.302705549161	57
0	20571	216.50223274233	13
1	4710	6.903095002048	1.903095002048
1	5598	18.502572258574	0.9432646781
1	5959	23.302857941953	0.233065494776
1	6327	27.704103682745	1.102719844193
1	8771	60.903456832217	1.152950194382
1	10005	77.302663180088	0.830044539003
1	11931	103.302736805415	0.84757730584
1	12761	114.102991668841	1.201707086185
1	13969	129.703592622011	1.744465452981
1	14331	134.502395110497	0.126176214686
1	15275	146.901906675103	1.16629836219
1	16047	156.90361180982	0.953684753415
1	17137	171.302373969763	1.138800112421
1	17295	173.302418373523	0.066040994656
1	17482	175.703597236699	0.026734950467
1	17526	176.102841017537	0.236293039294
1	17656	177.703725156321	0.215812283618
1	18457	188.102881960067	1.019489313682
1	20181	211.302705549161	0.930179160634
1	20571	216.50223274233	0.384382286391
2	4710	6.903095002048	0
2	5598	18.502572258574	1
2	5959	23.302857941953	2
2	6327	27.704103682745	3
2	8771	60.903456832217	4
2	10005	77.302663180088	5
2	11931	103.302736805415	6
2	12761	114.102991668841	7
2	13969	129.703592622011	8
2	14331	134.502395110497	9
2	15275	146.901906675103	10
2	16047	156.90361180982	11
2	17137	171.302373969763	12
2	17295	173.302418373523	13
2	17482	175.703597236699	14
2	17526	176.102841017537	15
2	17656	177.703725156321	16
2	18457	188.102881960067	17
2	20181	211.302705549161	18
2	20571	216.50223274233	19
4	4709	6.903095002048	109
4	5597	18.502572258574	108
4	5958	23.302857941953	70
4	6326	27.704103682745	292
4	8770	60.903456832217	91
4	10004	77.302663180088	115
4	11930	103.302736805415	60
4	12760	114.102991668841	236
4	13968	129.703592622011	269
4	14330	134.502395110497	102
4	15274	146.901906675103	24
4	16046	156.90361180982	106
4	17136	171.302373969763	76
4	17294	173.302418373523	178
4	17481	175.703597236699	115
4	17525	176.102841017537	58
4	17655	177.703725156321	129
4	18456	188.102881960067	70
4	20180	211.302705549161	65
4	20570	216.50223274233	21
5	4709	6.903095002048	1
5	5597	18.502572258574	2
5	5958	23.302857941953	3
5	6326	27.704103682745	4
5	8770	60.903456832217	5
5	10004	77.302663180088	6
5	11930	103.302736805415	7
5	12760	114.102991668841	8
5	13968	129.703592622011	9
5	14330	134.502395110497	10
5	15274	146.901906675103	11
5	16046	156.90361180982	12
5	17136	171.302373969763	13
5	17294	173.302418373523	14
5	17481	175.703597236699	15
5	17525	176.102841017537	16
5	17655	177.703725156321	17
5	18456	188.102881960067	18
5	20180	211.302705549161	19
5	20570	216.50223274233	20
8	4528	5.303194833117	1
8	13787	128.102067753534	1
13	0	0	0
13	13	0.1	2
13	21	0.100738408817	1
13	22	0.103125	2
13	32	0.109664190752	3
13	36	0.109721190752	1
13	40	0.1125	2
13	48	0.112597676513	1
13	49	0.115625	2
13	61	0.123330532599	3
13	65	0.123387532599	1
13	68	0.125	2
13	76	0.125916014401	1
13	77	0.128125	2
13	88	0.135855829079	3
13	92	0.135912829079	1
13	96	0.1375	2
13	104	0.138237358021	1
13	105	0.140625	2
13	116	0.147632420463	3
13	120	0.147689420463	1
13	124	0.15	2
13	132	0.150713991472	1
13	133	0.153125	2
13	144	0.159875838182	3
13	148	0.159932838182	1
13	152	0.1625	2
13	160	0.163073314939	1
13	161	0.165625	2
13	172	0.172116291681	3
13	176	0.172173291681	1
13	180	0.175	2
13	188	0.175376930276	1
13	189	0.178125	2
13	201	0.185466972952	3
13	205	0.185523972952	1
13	208	0.1875	2
13	216	0.188524777673	1
13	217	0.190625	2
13	228	0.197062422725	3
13	232	0.197119422725	1
13	236	0.2	2
13	244	0.200525377215	1
13	245	0.203125	2
13	256	0.210133087367	3
13	260	0.210190087367	1
13	264	0.2125	2
13	272	0.212974084401	1
13	273	0.215625	2
13	284	0.222863652704	3
13	288	0.222920652704	1
13	292	0.225	2
13	300	0.226027688396	1
13	301	0.228125	2
13	312	0.235653479253	3
13	316	0.235710479253	1
13	320	0.2375	2
13	328	0.238383951298	1
13	329	0.240625	2
13	340	0.247942228117	3
13	344	0.247999228117	1
13	348	0.25	2
13	356	0.250267447942	1
13	357	0.253125	2
13	368	0.260154001824	3
13	372	0.260211001824	1
13	376	0.2625	2
13	384	0.263359632591	1
13	385	0.265625	2
13	396	0.27279187028	3
13	400	0.27284887028	1
13	404	0.275	2
13	412	0.275345354068	1
13	413	0.278125	2
13	425	0.285499615986	3
13	429	0.285556615986	1
13	432	0.2875	2
13	440	0.28878425295	1
13	441	0.290625	2
13	452	0.297278903252	3
13	456	0.297335903252	1
13	460	0.3	2
13	468	0.301391503174	1
13	469	0.303125	2
13	480	0.310228448932	3
13	484	0.310285448932	1
13	488	0.3125	2
13	496	0.313329411845	1
13	497	0.315625	2
13	508	0.322511418488	3
13	512	0.322568418488	1
13	516	0.325	2
13	524	0.326379919112	1
13	525	0.328125	2
13	536	0.334651538475	3
13	540	0.334708538475	1
13	544	0.3375	2
13	552	0.33768161283	1
13	553	0.340625	2
13	565	0.348390050637	3
13	569	0.348447050637	1
13	572	0.35	2
13	580	0.350846613796	1
13	581	0.353125	2
13	592	0.359839091187	3
13	596	0.359896091187	1
13	600	0.3625	2
13	608	0.362659176944	1
13	609	0.365625	2
13	620	0.372324795031	3
13	624	0.372381795031	1
13	628	0.375	2
13	636	0.375726107924	1
13	637	0.378125	2
13	648	0.384556552067	3
13	652	0.384613552067	1
13	656	0.3875	2
13	664	0.387707996347	1
13	665	0.390625	2
13	676	0.397158948496	3
13	680	0.397215948496	1
13	684	0.4	2
13	692	0.400255854238	1
13	693	0.403125	2
13	704	0.410147327762	3
13	708	0.410204327762	1
13	712	0.4125	2
13	720	0.413489581326	1
13	721	0.415625	2
13	732	0.422759008016	3
13	736	0.422816008016	1
13	740	0.425	2
13	748	0.425410310537	1
13	749	0.428125	2
13	760	0.434721617449	3
13	764	0.434778617449	1
13	768	0.4375	2
13	776	0.437724269414	1
13	777	0.440625	2
13	789	0.448074204963	3
13	793	0.448131204963	1
13	796	0.45	2
13	804	0.450401395229	1
13	805	0.453125	2
13	816	0.46027704386	3
13	820	0.46033404386	1
13	824	0.4625	2
13	832	0.463103770353	1
13	833	0.465625	2
13	844	0.472137223929	3
13	848	0.472194223929	1
13	852	0.475	2
13	860	0.475788084727	1
13	861	0.478125	2
13	872	0.484949174014	3
13	876	0.485006174014	1
13	880	0.4875	2
13	888	0.487872390574	1
13	889	0.490625	2
13	900	0.497607302473	3
13	904	0.497664302473	1
13	908	0.5	2
13	916	0.501057802292	1
13	917	0.503125	2
13	928	0.51039729091	3
13	932	0.51045429091	1
13	936	0.5125	2
13	944	0.513311963394	1
13	945	0.515625	2
13	956	0.523114202723	3
13	960	0.523171202723	1
13	964	0.525	2
13	972	0.525846599152	1
13	973	0.528125	2
13	984	0.535411034056	3
13	988	0.535468034056	1
13	992	0.5375	2
13	1000	0.538161686548	1
13	1001	0.540625	2
13	1012	0.547832858896	3
13	1016	0.547889858896	1
13	1020	0.55	2
13	1028	0.551297225302	1
13	1029	0.553125	2
13	1040	0.560923206245	3
13	1044	0.560980206245	1
13	1048	0.5625	2
13	1056	0.563463423318	1
13	1057	0.565625	2
13	1068	0.572061694999	3
13	1072	0.572118694999	1
13	1076	0.575	2
13	1084	0.57531075835	1
13	1085	0.578125	2
13	1096	0.584607132469	3
13	1100	0.584664132469	1
13	1104	0.5875	2
13	1112	0.588652092319	1
13	1113	0.590625	2
13	1124	0.598206689114	3
13	1128	0.598263689114	1
13	1132	0.6	2
13	1140	0.601564277848	1
13	1141	0.603125	2
13	1152	0.610171134187	3
13	1156	0.610228134187	1
13	1160	0.6125	2
13	1168	0.613338429851	1
13	1169	0.615625	2
13	1180	0.62221448425	3
13	1184	0.62227148425	1
13	1188	0.625	2
13	1196	0.626447041874	1
13	1197	0.628125	2
13	1208	0.635926978581	3
13	1212	0.635983978581	1
13	1216	0.6375	2
13	1224	0.63809093812	1
13	1225	0.640625	2
13	1236	0.647367652314	3
13	1240	0.647424652314	1
13	1244	0.65	2
13	1252	0.650943329481	1
13	1253	0.653125	2
13	1264	0.65977927058	3
13	1268	0.65983627058	1
13	1272	0.6625	2
13	1280	0.663225207351	1
13	1281	0.665625	2
13	1292	0.673139336383	3
13	1296	0.673196336383	1
13	1300	0.675	2
13	1308	0.675739584379	1
13	1309	0.678125	2
13	1320	0.684927617771	3
13	1324	0.684984617771	1
13	1328	0.6875	2
13	1336	0.688770540513	1
13	1337	0.690625	2
13	1348	0.697606003893	3
13	1352	0.697663003893	1
13	1356	0.7	2
13	1364	0.700894048308	1
13	1365	0.703125	2
13	1376	0.709803395709	3
13	1380	0.709860395709	1
13	1384	0.7125	2
13	1392	0.714047389004	1
13	1393	0.715625	2
13	1404	0.723122188108	3
13	1408	0.723179188108	1
13	1412	0.725	2
13	1420	0.725907492025	1
13	1421	0.728125	2
13	1432	0.735647091276	3
13	1436	0.735704091276	1
13	1440	0.7375	2
13	1448	0.737685440096	1
13	1449	0.740625	2
13	1461	0.748356391287	3
13	1465	0.748413391287	1
13	1468	0.75	2
13	1476	0.750629576775	1
13	1477	0.753125	2
13	1489	0.760660757242	3
13	1493	0.760717757242	1
13	1496	0.7625	2
13	1504	0.763886620691	1
13	1505	0.765625	2
13	1516	0.772679904878	3
13	1520	0.772736904878	1
13	1524	0.775	2
13	1532	0.775691971545	1
13	1533	0.778125	2
13	1544	0.784720309616	3
13	1548	0.784777309616	1
13	1552	0.7875	2
13	1560	0.787599670479	1
13	1561	0.790625	2
13	1573	0.798041611583	3
13	1577	0.798098611583	1
13	1580	0.8	2
13	1588	0.800443381215	1
13	1589	0.803125	2
13	1600	0.810049277766	3
13	1604	0.810106277766	1
13	1608	0.8125	2
13	1616	0.812662079857	1
13	1617	0.815625	2
13	1629	0.823262974604	3
13	1633	0.823319974604	1
13	1636	0.825	2
13	1644	0.826610060548	1
13	1645	0.828125	2
13	1656	0.835845614536	3
13	1660	0.835902614536	1
13	1664	0.8375	2
13	1672	0.839073698524	1
13	1673	0.840625	2
13	1684	0.847660956641	3
13	1688	0.847717956641	1
13	1692	0.85	2
13	1700	0.851307570455	1
13	1701	0.853125	2
13	1712	0.860471940683	3
13	1716	0.860528940683	1
13	1720	0.8625	2
13	1728	0.86349750603	1
13	1729	0.865625	2
13	1740	0.872978971878	3
13	1744	0.873035971878	1
13	1748	0.875	2
13	1756	0.876252416568	1
13	1757	0.878125	2
13	1768	0.885126596492	3
13	1772	0.885183596492	1
13	1776	0.8875	2
13	1784	0.887821581541	1
13	1785	0.890625	2
13	1797	0.898375490203	3
13	1801	0.898432490203	1
13	1804	0.9	2
13	1812	0.900515015583	1
13	1813	0.903125	2
13	1824	0.910040660199	3
13	1828	0.910097660199	1
13	1832	0.9125	2
13	1840	0.913376021279	1
13	1841	0.915625	2
13	1852	0.922379490964	3
13	1856	0.922436490964	1
13	1860	0.925	2
13	1868	0.92561439222	1
13	1869	0.928125	2
13	1880	0.935565515623	3
13	1885	0.935622515623	1
13	1888	0.9375	2
13	1896	0.937628540165	1
13	1897	0.940625	2
13	1909	0.948332232126	3
13	1913	0.948389232126	1
13	1916	0.95	2
13	1924	0.951593344035	1
13	1925	0.953125	2
13	1936	0.960486276939	3
13	1940	0.960543276939	1
13	1944	0.9625	2
13	1952	0.963246783841	1
13	1953	0.965625	2
13	1964	0.972683485564	3
13	1968	0.972740485564	1
13	1972	0.975	2
13	1980	0.975844667468	1
13	1981	0.978125	2
13	1992	0.985756986874	3
13	1996	0.985813986874	1
13	2000	0.9875	2
13	2008	0.98806270009	1
13	2009	0.990625	2
13	2020	0.997740052884	3
13	2024	0.997797052884	1
13	2030	1	2
13	2038	1.000463017956	1
13	2039	1.003125	2
13	2050	1.010271316404	3
13	2054	1.010328316404	1
13	2058	1.0125	2
13	2066	1.013161682226	1
13	2067	1.015625	2
13	2078	1.022490520768	3
13	2082	1.022547520768	1
13	2086	1.025	2
13	2094	1.026357193188	1
13	2095	1.028125	2
13	2106	1.035822729295	3
13	2110	1.035879729295	1
13	2114	1.0375	2
13	2122	1.038708334065	1
13	2123	1.040625	2
13	2134	1.046883663158	3
13	2138	1.046940663158	1
13	2142	1.05	2
13	2150	1.050649683292	1
13	2151	1.053125	2
13	2162	1.06051327891	3
13	2166	1.06057027891	1
13	2170	1.0625	2
13	2178	1.062577506373	1
13	2179	1.065625	2
13	2190	1.072430865037	3
13	2194	1.072487865037	1
13	2198	1.075	2
13	2206	1.076303112006	1
13	2207	1.078125	2
13	2218	1.084707708191	3
13	2222	1.084764708191	1
13	2226	1.0875	2
13	2234	1.087978086784	1
13	2235	1.090625	2
13	2246	1.097440667823	3
13	2250	1.097497667823	1
13	2254	1.1	2
13	2262	1.100967611921	1
13	2263	1.103125	2
13	2274	1.110747344201	3
13	2278	1.110804344201	1
13	2282	1.1125	2
13	2290	1.112597090134	1
13	2291	1.115625	2
13	2302	1.122442696705	3
13	2306	1.122499696705	1
13	2310	1.125	2
13	2318	1.126091857441	1
13	2319	1.128125	2
13	2330	1.135161260808	3
13	2334	1.135218260808	1
13	2338	1.1375	2
13	2346	1.138162672137	1
13	2347	1.140625	2
13	2358	1.148074200404	3
13	2362	1.148131200404	1
13	2366	1.15	2
13	2374	1.150833844587	1
13	2375	1.153125	2
13	2386	1.160803868081	3
13	2391	1.160860868081	1
13	2394	1.1625	2
13	2402	1.163205457147	1
13	2403	1.165625	2
13	2414	1.173166200009	3
13	2419	1.173223200009	1
13	2422	1.175	2
13	2430	1.175605404129	1
13	2431	1.178125	2
13	2442	1.185018353814	3
13	2446	1.185075353814	1
13	2450	1.1875	2
13	2458	1.188418069758	1
13	2459	1.190625	2
13	2470	1.19786069165	3
13	2474	1.19791769165	1
13	2478	1.2	2
13	2486	1.201577339736	1
13	2487	1.203125	2
13	2498	1.209909236883	3
13	2502	1.209966236883	1
13	2506	1.2125	2
13	2514	1.212733379619	1
13	2515	1.215625	2
13	2526	1.222471395216	3
13	2530	1.222528395216	1
13	2534	1.225	2
13	2542	1.225546633224	1
13	2543	1.228125	2
13	2555	1.235878843087	3
13	2559	1.235935843087	1
13	2562	1.2375	2
13	2570	1.237622475699	1
13	2571	1.240625	2
13	2583	1.247885959728	3
13	2587	1.247942959728	1
13	2590	1.25	2
13	2598	1.251210916399	1
13	2599	1.253125	2
13	2610	1.260871633862	3
13	2614	1.260928633862	1
13	2618	1.2625	2
13	2626	1.263584529882	1
13	2627	1.265625	2
13	2638	1.273130393952	3
13	2642	1.273187393952	1
13	2646	1.275	2
13	2654	1.275392535138	1
13	2655	1.278125	2
13	2666	1.284733415569	3
13	2670	1.284790415569	1
13	2674	1.2875	2
13	2682	1.288208344027	1
13	2683	1.290625	2
13	2695	1.298248753172	3
13	2699	1.298305753172	1
13	2702	1.3	2
13	2710	1.301063169797	1
13	2711	1.303125	2
13	2722	1.310300775568	3
13	2726	1.310357775568	1
13	2730	1.3125	2
13	2738	1.313590731352	1
13	2739	1.315625	2
13	2750	1.323103394134	3
13	2754	1.323160394134	1
13	2758	1.325	2
13	2766	1.325323537301	1
13	2767	1.328125	2
13	2778	1.335206475689	3
13	2782	1.335263475689	1
13	2786	1.3375	2
13	2794	1.33893474839	1
13	2795	1.340625	2
13	2806	1.348387954019	3
13	2810	1.348444954019	1
13	2814	1.35	2
13	2822	1.351272804529	1
13	2823	1.353125	2
13	2834	1.360273364903	3
13	2838	1.360330364903	1
13	2842	1.3625	2
13	2850	1.362766470238	1
13	2851	1.365625	2
13	2862	1.372620067822	3
13	2866	1.372677067822	1
13	2870	1.375	2
13	2878	1.376414849016	1
13	2879	1.378125	2
13	2890	1.385033028699	3
13	2894	1.385090028699	1
13	2898	1.3875	2
13	2906	1.388727132217	1
13	2907	1.390625	2
13	2918	1.397810906207	3
13	2922	1.397867906207	1
13	2926	1.4	2
13	2934	1.401304956868	1
13	2935	1.403125	2
13	2946	1.409541519584	3
13	2950	1.409598519584	1
13	2954	1.4125	2
13	2962	1.413406143708	1
13	2963	1.415625	2
13	2974	1.422450949284	3
13	2978	1.422507949284	1
13	2982	1.425	2
13	2990	1.425402226027	1
13	2991	1.428125	2
13	3002	1.434712197496	3
13	3006	1.434769197496	1
13	3010	1.4375	2
13	3018	1.438992258408	1
13	3019	1.440625	2
13	3030	1.448136267408	3
13	3034	1.448193267408	1
13	3038	1.45	2
13	3046	1.450982298927	1
13	3047	1.453125	2
13	3058	1.46062221967	3
13	3062	1.46067921967	1
13	3066	1.4625	2
13	3074	1.46309816352	1
13	3075	1.465625	2
13	3086	1.472741467927	3
13	3090	1.472798467927	1
13	3094	1.475	2
13	3102	1.475469320729	1
13	3103	1.478125	2
13	3115	1.485773665217	3
13	3119	1.485830665217	1
13	3122	1.4875	2
13	3130	1.488985159714	1
13	3131	1.490625	2
13	3142	1.498326781095	3
13	3146	1.498383781095	1
13	3150	1.5	2
13	3158	1.500713003438	1
13	3159	1.503125	2
13	3171	1.510902552173	3
13	3175	1.510959552173	1
13	3178	1.5125	2
13	3186	1.513401216016	1
13	3187	1.515625	2
13	3198	1.523308935503	3
13	3202	1.523365935503	1
13	3206	1.525	2
13	3214	1.526007857664	1
13	3215	1.528125	2
13	3226	1.534437517555	3
13	3230	1.534494517555	1
13	3234	1.5375	2
13	3242	1.538848182136	1
13	3243	1.540625	2
13	3254	1.548020035137	3
13	3258	1.548077035137	1
13	3262	1.55	2
13	3270	1.551031484253	1
13	3271	1.553125	2
13	3282	1.560775584182	3
13	3286	1.560832584182	1
13	3290	1.5625	2
13	3298	1.562833279533	1
13	3299	1.565625	2
13	3311	1.573184110231	3
13	3315	1.573241110231	1
13	3318	1.575	2
13	3326	1.575981006401	1
13	3327	1.578125	2
13	3338	1.585213208903	3
13	3342	1.585270208903	1
13	3346	1.5875	2
13	3354	1.588321645169	1
13	3355	1.590625	2
13	3366	1.597377060287	3
13	3370	1.597434060287	1
13	3374	1.6	2
13	3382	1.600913272686	1
13	3383	1.603125	2
13	3394	1.609995709363	3
13	3398	1.610052709363	1
13	3402	1.6125	2
13	3410	1.613650167755	1
13	3411	1.615625	2
13	3422	1.622308498774	3
13	3426	1.622365498774	1
13	3430	1.625	2
13	3438	1.625441246721	1
13	3439	1.628125	2
13	3451	1.635837887568	3
13	3455	1.635894887568	1
13	3458	1.6375	2
13	3466	1.637848771694	1
13	3467	1.640625	2
13	3478	1.647599597825	3
13	3482	1.647656597825	1
13	3486	1.65	2
13	3494	1.650229952947	1
13	3495	1.653125	2
13	3507	1.6607067015	3
13	3511	1.6607637015	1
13	3514	1.6625	2
13	3522	1.662985384371	1
13	3523	1.665625	2
13	3534	1.672207449017	3
13	3538	1.672264449017	1
13	3542	1.675	2
13	3550	1.675073182471	1
13	3551	1.678125	2
13	3562	1.6843751931	3
13	3566	1.6844321931	1
13	3570	1.6875	2
13	3578	1.688540541355	1
13	3579	1.690625	2
13	3590	1.697020150415	3
13	3594	1.697077150415	1
13	3598	1.7	2
13	3606	1.70051837351	1
13	3607	1.703125	2
13	3618	1.709648619358	3
13	3622	1.709705619358	1
13	3626	1.7125	2
13	3634	1.712849802007	1
13	3635	1.715625	2
13	3646	1.722679467449	3
13	3650	1.722736467449	1
13	3654	1.725	2
13	3662	1.72520605436	1
13	3663	1.728125	2
13	3675	1.735749984924	3
13	3679	1.735806984924	1
13	3682	1.7375	2
13	3690	1.738000535229	1
13	3691	1.740625	2
13	3703	1.74810123738	3
13	3707	1.74815823738	1
13	3710	1.75	2
13	3718	1.750392986127	1
13	3719	1.753125	2
13	3730	1.760202845587	3
13	3734	1.760259845587	1
13	3738	1.7625	2
13	3746	1.763003422614	1
13	3747	1.765625	2
13	3758	1.772302871671	3
13	3762	1.772359871671	1
13	3766	1.775	2
13	3774	1.775793744686	1
13	3775	1.778125	2
13	3786	1.784416225228	3
13	3790	1.784473225228	1
13	3794	1.7875	2
13	3802	1.788415755561	1
13	3803	1.790625	2
13	3814	1.798233919721	3
13	3818	1.798290919721	1
13	3822	1.8	2
13	3830	1.801377656032	1
13	3831	1.803125	2
13	3842	1.809805371663	3
13	3846	1.809862371663	1
13	3850	1.8125	2
13	3858	1.814101713198	1
13	3859	1.815625	2
13	3870	1.822101891183	3
13	3874	1.822158891183	1
13	3878	1.825	2
13	3886	1.825133523167	1
13	3887	1.828125	2
13	3899	1.83516470568	3
13	3903	1.83522170568	1
13	3906	1.8375	2
13	3914	1.837919851548	1
13	3915	1.840625	2
13	3926	1.847398585413	3
13	3930	1.847455585413	1
13	3934	1.85	2
13	3942	1.851062340887	1
13	3943	1.853125	2
13	3954	1.859627649114	3
13	3958	1.859684649114	1
13	3962	1.8625	2
13	3970	1.862809458293	1
13	3971	1.865625	2
13	3982	1.872217640583	3
13	3986	1.872274640583	1
13	3990	1.875	2
13	3998	1.87641676974	1
13	3999	1.878125	2
13	4010	1.88568205883	3
13	4014	1.88573905883	1
13	4018	1.8875	2
13	4026	1.887896858067	1
13	4027	1.890625	2
13	4039	1.898000543788	3
13	4043	1.898057543788	1
13	4046	1.9	2
13	4054	1.901216159039	1
13	4055	1.903125	2
13	4066	1.909455450297	3
13	4070	1.909512450297	1
13	4074	1.9125	2
13	4082	1.913577511328	1
13	4083	1.915625	2
13	4094	1.92284886302	3
13	4098	1.92290586302	1
13	4102	1.925	2
13	4110	1.926305425398	1
13	4111	1.928125	2
13	4122	1.934822295706	3
13	4126	1.934879295706	1
13	4130	1.9375	2
13	4138	1.937605991097	1
13	4139	1.940625	2
13	4151	1.948144971799	3
13	4155	1.948201971799	1
13	4158	1.95	2
13	4166	1.950415876201	1
13	4167	1.953125	2
13	4178	1.960227926099	3
13	4182	1.960284926099	1
13	4186	1.9625	2
13	4194	1.963658147251	1
13	4195	1.965625	2
13	4206	1.971903546931	3
13	4210	1.971960546931	1
13	4214	1.975	2
13	4222	1.975193983202	1
13	4223	1.978125	2
13	4234	1.984400172289	3
13	4238	1.984457172289	1
13	4242	1.9875	2
13	4250	1.987604962841	1
13	4251	1.990625	2
13	4263	1.998335993325	3
13	4267	1.998392993325	1
13	4275	2.1	2
13	4283	2.100615190118	1
13	4285	2.2	2
13	4287	2.203125	1
13	4289	2.3	2
13	4291	2.303125	1
13	4293	2.4	2
13	4295	2.400610290125	3
13	4299	2.400667290125	1
13	4303	2.5	2
13	4311	2.500978701144	1
13	4313	2.6	2
13	4315	2.603125	1
13	4317	2.7	2
13	4319	2.703125	1
13	4321	2.8	2
13	4323	2.801422899245	3
13	4327	2.801479899245	1
13	4331	2.9	2
13	4339	2.900138764789	1
13	4343	3	2
13	4345	3.003125	1
13	4347	3.1	2
13	4349	3.103125	1
13	4351	3.2	2
13	4353	3.201280414649	3
13	4357	3.201337414649	1
13	4361	3.3	2
13	4369	3.300159766267	1
13	4371	3.4	2
13	4373	3.403125	1
13	4375	3.5	2
13	4377	3.503125	1
13	4379	3.6	2
13	4381	3.600141203716	3
13	4385	3.600198203716	1
13	4389	3.7	2
13	4397	3.700125137387	1
13	4399	3.8	2
13	4401	3.803125	1
13	4403	3.9	2
13	4405	3.903125	1
13	4409	4	2
13	4411	4.000559750481	3
13	4415	4.000616750481	1
13	4419	4.1	2
13	4427	4.100674589844	1
13	4429	4.2	2
13	4431	4.203125	1
13	4433	4.3	2
13	4435	4.303125	1
13	4437	4.4	2
13	4439	4.400029664263	3
13	4443	4.400086664263	1
13	4447	4.5	2
13	4455	4.501101584047	1
13	4457	4.6	2
13	4459	4.603125	1
13	4461	4.7	2
13	4463	4.703125	1
13	4465	4.8	2
13	4467	4.800703166753	3
13	4471	4.800760166753	1
13	4475	4.9	2
13	4483	4.900366584148	1
13	4488	5	2
13	4493	5.003125	1
13	4497	5.1	2
13	4499	5.103125	1
13	4501	5.2	2
13	4503	5.200047450394	3
13	4507	5.200104450394	1
13	4511	5.3	2
13	4525	5.303194833117	1
13	4537	5.4	2
13	4539	5.403125	1
13	4541	5.5	2
13	4543	5.503125	1
13	4545	5.6	2
13	4547	5.600422428077	3
13	4557	5.602151928077	1
13	4566	5.7	2
13	4580	5.702501274751	1
13	4586	5.8	2
13	4588	5.803125	1
13	4592	5.9	2
13	4594	5.903125	1
13	4598	6	2
13	4600	6.000004035273	3
13	4604	6.000061035273	1
13	4608	6.1	2
13	4622	6.102697856565	1
13	4628	6.2	2
13	4630	6.203125	1
13	4632	6.3	2
13	4634	6.303125	1
13	4636	6.4	2
13	4638	6.400677727993	3
13	4648	6.402487227993	1
13	4656	6.5	2
13	4670	6.502279458572	1
13	4675	6.6	2
13	4677	6.603125	1
13	4679	6.7	2
13	4681	6.703125	1
13	4683	6.8	2
13	4685	6.80091745969	3
13	4689	6.80097445969	1
13	4693	6.9	2
13	4707	6.903095002048	1
13	4715	7	2
13	4717	7.003125	1
13	4719	7.1	2
13	4721	7.103125	1
13	4723	7.2	2
13	4725	7.201549975389	3
13	4729	7.201606975389	1
13	4733	7.3	2
13	4741	7.301547260476	1
13	4743	7.4	2
13	4745	7.403125	1
13	4747	7.5	2
13	4749	7.503125	1
13	4751	7.6	2
13	4753	7.600680501292	3
13	4757	7.600737501292	1
13	4761	7.7	2
13	4769	7.700757189773	1
13	4771	7.8	2
13	4773	7.803125	1
13	4775	7.9	2
13	4777	7.903125	1
13	4781	8	2
13	4783	8.000566292785	3
13	4787	8.000623292785	1
13	4791	8.1	2
13	4799	8.100380682148	1
13	4801	8.2	2
13	4803	8.203125	1
13	4805	8.3	2
13	4807	8.303125	1
13	4809	8.4	2
13	4811	8.401364261469	3
13	4815	8.401421261469	1
13	4819	8.5	2
13	4827	8.500721803181	1
13	4829	8.6	2
13	4831	8.603125	1
13	4833	8.7	2
13	4835	8.703125	1
13	4837	8.8	2
13	4839	8.80075789651	3
13	4843	8.80081489651	1
13	4847	8.9	2
13	4855	8.900751814067	1
13	4859	9	2
13	4861	9.003125	1
13	4863	9.1	2
13	4865	9.103125	1
13	4867	9.2	2
13	4869	9.201162284422	3
13	4873	9.201219284422	1
13	4877	9.3	2
13	4885	9.300850319099	1
13	4887	9.4	2
13	4889	9.403125	1
13	4891	9.5	2
13	4893	9.503125	1
13	4895	9.6	2
13	4897	9.601178407738	3
13	4901	9.601235407738	1
13	4905	9.7	2
13	4913	9.700878624989	1
13	4915	9.8	2
13	4917	9.803125	1
13	4919	9.9	2
13	4921	9.903125	1
13	4925	10	2
13	4927	10.000505755004	3
13	4931	10.000562755004	1
13	4935	10.1	2
13	4943	10.100123462393	1
13	4945	10.2	2
13	4947	10.203125	1
13	4949	10.3	2
13	4951	10.303125	1
13	4953	10.4	2
13	4955	10.401148986553	3
13	4959	10.401205986553	1
13	4963	10.5	2
13	4971	10.500314071612	1
13	4973	10.6	2
13	4975	10.603125	1
13	4977	10.7	2
13	4979	10.703125	1
13	4981	10.8	2
13	4983	10.800289983963	3
13	4987	10.800346983963	1
13	4992	10.9	2
13	5000	10.90076064675	1
13	5005	11	2
13	5007	11.003125	1
13	5009	11.1	2
13	5011	11.103125	1
13	5013	11.2	2
13	5015	11.200206393372	3
13	5019	11.200263393372	1
13	5023	11.3	2
13	5031	11.301163371742	1
13	5033	11.4	2
13	5035	11.403125	1
13	5037	11.5	2
13	5039	11.503125	1
13	5041	11.6	2
13	5043	11.600015581103	3
13	5047	11.600072581103	1
13	5051	11.7	2
13	5059	11.701272147895	1
13	5061	11.8	2
13	5063	11.803125	1
13	5065	11.9	2
13	5067	11.903125	1
13	5071	12	2
13	5073	12.000582876648	3
13	5077	12.000639876648	1
13	5081	12.1	2
13	5089	12.101271390225	1
13	5091	12.2	2
13	5093	12.203125	1
13	5095	12.3	2
13	5097	12.303125	1
13	5099	12.4	2
13	5101	12.400016876442	3
13	5105	12.400073876442	1
13	5110	12.5	2
13	5118	12.500842758575	1
13	5120	12.6	2
13	5122	12.603125	1
13	5124	12.7	2
13	5126	12.703125	1
13	5128	12.8	2
13	5130	12.801325721879	3
13	5134	12.801382721879	1
13	5138	12.9	2
13	5146	12.901552084903	1
13	5150	13	2
13	5152	13.003125	1
13	5154	13.1	2
13	5156	13.103125	1
13	5158	13.2	2
13	5160	13.200379948108	3
13	5164	13.200436948108	1
13	5168	13.3	2
13	5176	13.300575719455	1
13	5178	13.4	2
13	5180	13.403125	1
13	5182	13.5	2
13	5184	13.503125	1
13	5186	13.6	2
13	5188	13.601062542585	3
13	5192	13.601119542585	1
13	5196	13.7	2
13	5204	13.700809445154	1
13	5206	13.8	2
13	5208	13.803125	1
13	5210	13.9	2
13	5212	13.903125	1
13	5216	14	2
13	5218	14.001058030848	3
13	5222	14.001115030848	1
13	5226	14.1	2
13	5234	14.101226501155	1
13	5236	14.2	2
13	5238	14.203125	1
13	5240	14.3	2
13	5242	14.303125	1
13	5244	14.4	2
13	5246	14.401384105314	3
13	5250	14.401441105314	1
13	5254	14.5	2
13	5262	14.501397541028	1
13	5264	14.6	2
13	5266	14.603125	1
13	5268	14.7	2
13	5270	14.703125	1
13	5272	14.8	2
13	5274	14.800239946367	3
13	5278	14.800296946367	1
13	5282	14.9	2
13	5290	14.900704760615	1
13	5294	15	2
13	5296	15.003125	1
13	5298	15.1	2
13	5300	15.103125	1
13	5302	15.2	2
13	5304	15.201479209568	3
13	5308	15.201536209568	1
13	5312	15.3	2
13	5320	15.301383236343	1
13	5322	15.4	2
13	5324	15.403125	1
13	5326	15.5	2
13	5328	15.503125	1
13	5330	15.6	2
13	5332	15.600458974584	3
13	5336	15.600515974584	1
13	5340	15.7	2
13	5348	15.700751808878	1
13	5350	15.8	2
13	5352	15.803125	1
13	5354	15.9	2
13	5356	15.903125	1
13	5360	16	2
13	5362	16.00115093834	3
13	5366	16.00120793834	1
13	5370	16.1	2
13	5378	16.101175521605	1
13	5380	16.2	2
13	5382	16.203125	1
13	5384	16.3	2
13	5386	16.303125	1
13	5388	16.4	2
13	5390	16.400743029642	3
13	5394	16.400800029642	1
13	5398	16.5	2
13	5406	16.500070367352	1
13	5408	16.6	2
13	5410	16.603125	1
13	5412	16.7	2
13	5414	16.703125	1
13	5416	16.8	2
13	5418	16.80025760491	3
13	5422	16.80031460491	1
13	5426	16.9	2
13	5434	16.900096544006	1
13	5438	17	2
13	5440	17.003125	1
13	5442	17.1	2
13	5444	17.103125	1
13	5446	17.2	2
13	5448	17.20129289586	3
13	5452	17.20134989586	1
13	5456	17.3	2
13	5464	17.301526620682	1
13	5466	17.4	2
13	5468	17.403125	1
13	5470	17.5	2
13	5472	17.503125	1
13	5479	17.6	2
13	5481	17.600843277828	3
13	5485	17.600900277828	1
13	5489	17.7	2
13	5503	17.701985257329	1
13	5511	17.8	2
13	5513	17.803125	1
13	5518	17.9	2
13	5520	17.903125	1
13	5524	18	2
13	5526	18.00055339441	3
13	5536	18.00236289441	1
13	5544	18.1	2
13	5558	18.102859991451	1
13	5563	18.2	2
13	5565	18.203125	1
13	5567	18.3	2
13	5569	18.303125	1
13	5571	18.4	2
13	5573	18.401315621381	3
13	5577	18.401372621381	1
13	5581	18.5	2
13	5595	18.502572258574	1
13	5601	18.6	2
13	5603	18.603125	1
13	5605	18.7	2
13	5607	18.703125	1
13	5609	18.8	2
13	5611	18.800049695121	3
13	5615	18.800106695121	1
13	5619	18.9	2
13	5627	18.900370982951	1
13	5631	19	2
13	5633	19.003125	1
13	5635	19.1	2
13	5637	19.103125	1
13	5639	19.2	2
13	5641	19.200105836311	3
13	5645	19.200162836311	1
13	5649	19.3	2
13	5657	19.300663938935	1
13	5659	19.4	2
13	5661	19.403125	1
13	5663	19.5	2
13	5665	19.503125	1
13	5667	19.6	2
13	5669	19.600981533154	3
13	5673	19.601038533154	1
13	5677	19.7	2
13	5685	19.701503888028	1
13	5687	19.8	2
13	5689	19.803125	1
13	5691	19.9	2
13	5693	19.903125	1
13	5697	20	2
13	5699	20.000992099234	3
13	5703	20.001049099234	1
13	5707	20.1	2
13	5715	20.100948220233	1
13	5717	20.2	2
13	5719	20.203125	1
13	5721	20.3	2
13	5723	20.303125	1
13	5725	20.4	2
13	5727	20.401202714013	3
13	5731	20.401259714013	1
13	5735	20.5	2
13	5743	20.501489533369	1
13	5745	20.6	2
13	5747	20.603125	1
13	5749	20.7	2
13	5752	20.703125	1
13	5754	20.8	2
13	5756	20.800689669728	3
13	5760	20.800746669728	1
13	5764	20.9	2
13	5772	20.901154454657	1
13	5776	21	2
13	5778	21.003125	1
13	5780	21.1	2
13	5782	21.103125	1
13	5784	21.2	2
13	5786	21.201341356783	3
13	5790	21.201398356783	1
13	5794	21.3	2
13	5802	21.300840317493	1
13	5804	21.4	2
13	5806	21.403125	1
13	5808	21.5	2
13	5810	21.503125	1
13	5812	21.6	2
13	5814	21.600596347777	3
13	5818	21.600653347777	1
13	5822	21.7	2
13	5830	21.700847927451	1
13	5832	21.8	2
13	5834	21.803125	1
13	5836	21.9	2
13	5838	21.903125	1
13	5842	22	2
13	5844	22.001507469773	3
13	5848	22.001564469773	1
13	5852	22.1	2
13	5860	22.100399074255	1
13	5862	22.2	2
13	5864	22.203125	1
13	5866	22.3	2
13	5868	22.303125	1
13	5870	22.4	2
13	5872	22.401219221673	3
13	5876	22.401276221673	1
13	5880	22.5	2
13	5888	22.500064453533	1
13	5890	22.6	2
13	5892	22.603125	1
13	5894	22.7	2
13	5896	22.703125	1
13	5898	22.8	2
13	5900	22.800665585546	3
13	5904	22.800722585546	1
13	5908	22.9	2
13	5916	22.900710035917	1
13	5920	23	2
13	5922	23.003125	1
13	5928	23.1	2
13	5930	23.103125	1
13	5932	23.2	2
13	5934	23.200540778358	3
13	5938	23.200597778358	1
13	5942	23.3	2
13	5956	23.302857941953	1
13	5963	23.4	2
13	5965	23.403125	1
13	5967	23.5	2
13	5969	23.503125	1
13	5971	23.6	2
13	5973	23.60084247283	3
13	5977	23.60089947283	1
13	5981	23.7	2
13	5989	23.701426794701	1
13	5991	23.8	2
13	5993	23.803125	1
13	5995	23.9	2
13	5997	23.903125	1
13	6001	24	2
13	6003	24.000673771725	3
13	6007	24.000730771725	1
13	6012	24.1	2
13	6020	24.101115893094	1
13	6022	24.2	2
13	6024	24.203125	1
13	6026	24.3	2
13	6028	24.303125	1
13	6030	24.4	2
13	6032	24.401222864091	3
13	6036	24.401279864091	1
13	6040	24.5	2
13	6048	24.501373312163	1
13	6050	24.6	2
13	6052	24.603125	1
13	6054	24.7	2
13	6056	24.703125	1
13	6058	24.8	2
13	6060	24.801042698698	3
13	6064	24.801099698698	1
13	6068	24.9	2
13	6076	24.901504293785	1
13	6080	25	2
13	6082	25.003125	1
13	6084	25.1	2
13	6086	25.103125	1
13	6088	25.2	2
13	6090	25.201082216984	3
13	6094	25.201139216984	1
13	6098	25.3	2
13	6106	25.301527660342	1
13	6108	25.4	2
13	6110	25.403125	1
13	6112	25.5	2
13	6114	25.503125	1
13	6116	25.6	2
13	6118	25.600537249836	3
13	6122	25.600594249836	1
13	6126	25.7	2
13	6134	25.701332196711	1
13	6136	25.8	2
13	6138	25.803125	1
13	6140	25.9	2
13	6142	25.903125	1
13	6146	26	2
13	6148	26.000899654686	3
13	6152	26.000956654686	1
13	6157	26.1	2
13	6165	26.100262470856	1
13	6167	26.2	2
13	6169	26.203125	1
13	6171	26.3	2
13	6173	26.303125	1
13	6175	26.4	2
13	6177	26.400654542675	3
13	6181	26.400711542675	1
13	6185	26.5	2
13	6193	26.500598776189	1
13	6195	26.6	2
13	6202	26.603125	1
13	6204	26.7	2
13	6206	26.703125	1
13	6208	26.8	2
13	6210	26.80010718623	3
13	6214	26.80016418623	1
13	6218	26.9	2
13	6232	26.90215145193	1
13	6245	27	2
13	6247	27.003125	1
13	6249	27.1	2
13	6251	27.103125	1
13	6253	27.2	2
13	6255	27.20015241886	3
13	6265	27.20196191886	1
13	6273	27.3	2
13	6287	27.303180950441	1
13	6292	27.4	2
13	6294	27.403125	1
13	6296	27.5	2
13	6298	27.503125	1
13	6300	27.6	2
13	6302	27.600353587749	3
13	6306	27.600410587749	1
13	6310	27.7	2
13	6324	27.704103682745	1
13	6330	27.8	2
13	6332	27.803125	1
13	6334	27.9	2
13	6336	27.903125	1
13	6340	28	2
13	6342	28.001345355746	3
13	6346	28.001402355746	1
13	6350	28.1	2
13	6358	28.100602481847	1
13	6360	28.2	2
13	6362	28.203125	1
13	6364	28.3	2
13	6366	28.303125	1
13	6368	28.4	2
13	6370	28.400438843735	3
13	6374	28.400495843735	1
13	6378	28.5	2
13	6386	28.500946448866	1
13	6388	28.6	2
13	6390	28.603125	1
13	6392	28.7	2
13	6394	28.703125	1
13	6396	28.8	2
13	6398	28.800195654015	3
13	6402	28.800252654015	1
13	6406	28.9	2
13	6414	28.901315184814	1
13	6418	29	2
13	6420	29.003125	1
13	6422	29.1	2
13	6424	29.103125	1
13	6426	29.2	2
13	6428	29.200116032513	3
13	6432	29.200173032513	1
13	6436	29.3	2
13	6444	29.301358981224	1
13	6446	29.4	2
13	6448	29.403125	1
13	6450	29.5	2
13	6452	29.503125	1
13	6454	29.6	2
13	6456	29.600509134791	3
13	6460	29.600566134791	1
13	6464	29.7	2
13	6472	29.700378719404	1
13	6474	29.8	2
13	6476	29.803125	1
13	6478	29.9	2
13	6481	29.903125	1
13	6485	30	2
13	6487	30.001182819749	3
13	6491	30.001239819749	1
13	6495	30.1	2
13	6503	30.101198854594	1
13	6505	30.2	2
13	6507	30.203125	1
13	6509	30.3	2
13	6511	30.303125	1
13	6513	30.4	2
13	6515	30.400639374448	3
13	6519	30.400696374448	1
13	6523	30.5	2
13	6531	30.501312501416	1
13	6533	30.6	2
13	6535	30.603125	1
13	6537	30.7	2
13	6539	30.703125	1
13	6541	30.8	2
13	6543	30.801182031693	3
13	6547	30.801239031693	1
13	6551	30.9	2
13	6559	30.900124555902	1
13	6563	31	2
13	6565	31.003125	1
13	6567	31.1	2
13	6569	31.103125	1
13	6571	31.2	2
13	6573	31.20042215275	3
13	6577	31.20047915275	1
13	6581	31.3	2
13	6589	31.300224647095	1
13	6591	31.4	2
13	6593	31.403125	1
13	6595	31.5	2
13	6597	31.503125	1
13	6599	31.6	2
13	6601	31.601353406628	3
13	6605	31.601410406628	1
13	6609	31.7	2
13	6617	31.700736984984	1
13	6619	31.8	2
13	6621	31.803125	1
13	6623	31.9	2
13	6625	31.903125	1
13	6629	32	2
13	6631	32.00152187401	3
13	6635	32.00157887401	1
13	6639	32.1	2
13	6647	32.100402293687	1
13	6649	32.2	2
13	6651	32.203125	1
13	6653	32.3	2
13	6655	32.303125	1
13	6657	32.4	2
13	6659	32.401181270324	3
13	6663	32.401238270324	1
13	6667	32.5	2
13	6675	32.501433138753	1
13	6678	32.6	2
13	6680	32.603125	1
13	6682	32.7	2
13	6684	32.703125	1
13	6686	32.8	2
13	6688	32.801480348971	3
13	6692	32.801537348971	1
13	6696	32.9	2
13	6704	32.901181678568	1
13	6708	33	2
13	6710	33.003125	1
13	6712	33.1	2
13	6714	33.103125	1
13	6716	33.2	2
13	6718	33.200286382475	3
13	6722	33.200343382475	1
13	6727	33.3	2
13	6735	33.301171240673	1
13	6737	33.4	2
13	6739	33.403125	1
13	6741	33.5	2
13	6743	33.503125	1
13	6745	33.6	2
13	6747	33.601542663837	3
13	6751	33.601599663837	1
13	6755	33.7	2
13	6763	33.701260072496	1
13	6765	33.8	2
13	6767	33.803125	1
13	6769	33.9	2
13	6771	33.903125	1
13	6775	34	2
13	6777	34.000063155917	3
13	6781	34.000120155917	1
13	6785	34.1	2
13	6793	34.100573959014	1
13	6795	34.2	2
13	6797	34.203125	1
13	6799	34.3	2
13	6801	34.303125	1
13	6803	34.4	2
13	6805	34.400617521967	3
13	6809	34.400674521967	1
13	6813	34.5	2
13	6821	34.500414370299	1
13	6823	34.6	2
13	6825	34.603125	1
13	6827	34.7	2
13	6829	34.703125	1
13	6831	34.8	2
13	6833	34.800935228721	3
13	6837	34.800992228721	1
13	6841	34.9	2
13	6849	34.901035829223	1
13	6853	35	2
13	6855	35.003125	1
13	6857	35.1	2
13	6859	35.103125	1
13	6861	35.2	2
13	6863	35.200235135101	3
13	6867	35.200292135101	1
13	6871	35.3	2
13	6879	35.300704790608	1
13	6881	35.4	2
13	6883	35.403125	1
13	6885	35.5	2
13	6887	35.503125	1
13	6889	35.6	2
13	6891	35.600272566912	3
13	6895	35.600329566912	1
13	6899	35.7	2
13	6907	35.701520887211	1
13	6909	35.8	2
13	6911	35.803125	1
13	6913	35.9	2
13	6915	35.903125	1
13	6919	36	2
13	6921	36.000232306759	3
13	6925	36.000289306759	1
13	6929	36.1	2
13	6937	36.101060998697	1
13	6939	36.2	2
13	6941	36.203125	1
13	6943	36.3	2
13	6945	36.303125	1
13	6947	36.4	2
13	6949	36.400020682865	3
13	6953	36.400077682865	1
13	6957	36.5	2
13	6965	36.500661698571	1
13	6967	36.6	2
13	6969	36.603125	1
13	6971	36.7	2
13	6973	36.703125	1
13	6975	36.8	2
13	6977	36.800002407399	3
13	6981	36.800059407399	1
13	6985	36.9	2
13	6993	36.901393291262	1
13	6997	37	2
13	6999	37.003125	1
13	7001	37.1	2
13	7003	37.103125	1
13	7005	37.2	2
13	7007	37.200064482995	3
13	7011	37.200121482995	1
13	7015	37.3	2
13	7023	37.30065215519	1
13	7025	37.4	2
13	7027	37.403125	1
13	7029	37.5	2
13	7031	37.503125	1
13	7033	37.6	2
13	7035	37.60066506132	3
13	7039	37.60072206132	1
13	7043	37.7	2
13	7051	37.700335775885	1
13	7053	37.8	2
13	7055	37.803125	1
13	7057	37.9	2
13	7059	37.903125	1
13	7063	38	2
13	7065	38.001506870154	3
13	7069	38.001563870154	1
13	7073	38.1	2
13	7081	38.10127850964	1
13	7083	38.2	2
13	7085	38.203125	1
13	7087	38.3	2
13	7089	38.303125	1
13	7091	38.4	2
13	7093	38.400285447399	3
13	7097	38.400342447399	1
13	7101	38.5	2
13	7109	38.500794992701	1
13	7111	38.6	2
13	7113	38.603125	1
13	7115	38.7	2
13	7117	38.703125	1
13	7119	38.8	2
13	7121	38.801164122282	3
13	7125	38.801221122282	1
13	7129	38.9	2
13	7137	38.900462604913	1
13	7141	39	2
13	7143	39.003125	1
13	7145	39.1	2
13	7147	39.103125	1
13	7149	39.2	2
13	7151	39.200530723861	3
13	7155	39.200587723861	1
13	7159	39.3	2
13	7167	39.301139040599	1
13	7169	39.4	2
13	7171	39.403125	1
13	7173	39.5	2
13	7175	39.503125	1
13	7177	39.6	2
13	7179	39.601017331547	3
13	7183	39.601074331547	1
13	7187	39.7	2
13	7195	39.701589174716	1
13	7197	39.8	2
13	7199	39.803125	1
13	7201	39.9	2
13	7203	39.903125	1
13	7207	40	2
13	7209	40.001001744628	3
13	7213	40.001058744628	1
13	7217	40.1	2
13	7225	40.100441938018	1
13	7227	40.2	2
13	7229	40.203125	1
13	7231	40.3	2
13	7233	40.303125	1
13	7235	40.4	2
13	7237	40.400348597836	3
13	7241	40.400405597836	1
13	7245	40.5	2
13	7253	40.501291922717	1
13	7255	40.6	2
13	7257	40.603125	1
13	7259	40.7	2
13	7261	40.703125	1
13	7263	40.8	2
13	7265	40.801172270724	3
13	7269	40.801229270724	1
13	7273	40.9	2
13	7281	40.901248315607	1
13	7285	41	2
13	7287	41.003125	1
13	7289	41.1	2
13	7291	41.103125	1
13	7293	41.2	2
13	7295	41.200709497353	3
13	7299	41.200766497353	1
13	7303	41.3	2
13	7311	41.300244728957	1
13	7313	41.4	2
13	7315	41.403125	1
13	7317	41.5	2
13	7319	41.503125	1
13	7321	41.6	2
13	7323	41.600274444822	3
13	7327	41.600331444822	1
13	7331	41.7	2
13	7339	41.701367952091	1
13	7341	41.8	2
13	7343	41.803125	1
13	7345	41.9	2
13	7347	41.903125	1
13	7351	42	2
13	7353	42.000398459737	3
13	7357	42.000455459737	1
13	7361	42.1	2
13	7369	42.100778633818	1
13	7371	42.2	2
13	7373	42.203125	1
13	7375	42.3	2
13	7377	42.303125	1
13	7379	42.4	2
13	7381	42.401133796998	3
13	7385	42.401190796998	1
13	7389	42.5	2
13	7397	42.500253700199	1
13	7399	42.6	2
13	7401	42.603125	1
13	7403	42.7	2
13	7405	42.703125	1
13	7407	42.8	2
13	7409	42.800610897284	3
13	7413	42.800667897284	1
13	7417	42.9	2
13	7425	42.900895203456	1
13	7429	43	2
13	7431	43.003125	1
13	7433	43.1	2
13	7435	43.103125	1
13	7437	43.2	2
13	7439	43.200604036657	3
13	7443	43.200661036657	1
13	7447	43.3	2
13	7455	43.300520467957	1
13	7457	43.4	2
13	7459	43.403125	1
13	7461	43.5	2
13	7463	43.503125	1
13	7465	43.6	2
13	7467	43.601147945795	3
13	7471	43.601204945795	1
13	7475	43.7	2
13	7483	43.700331735828	1
13	7485	43.8	2
13	7487	43.803125	1
13	7489	43.9	2
13	7491	43.903125	1
13	7495	44	2
13	7497	44.001521173932	3
13	7501	44.001578173932	1
13	7505	44.1	2
13	7513	44.10018097643	1
13	7515	44.2	2
13	7517	44.203125	1
13	7519	44.3	2
13	7521	44.303125	1
13	7523	44.4	2
13	7525	44.400378652348	3
13	7529	44.400435652348	1
13	7533	44.5	2
13	7541	44.500367946619	1
13	7543	44.6	2
13	7545	44.603125	1
13	7547	44.7	2
13	7549	44.703125	1
13	7551	44.8	2
13	7553	44.800322841799	3
13	7557	44.800379841799	1
13	7561	44.9	2
13	7569	44.900728398994	1
13	7574	45	2
13	7576	45.003125	1
13	7578	45.1	2
13	7580	45.103125	1
13	7582	45.2	2
13	7584	45.200663139633	3
13	7588	45.200720139633	1
13	7592	45.3	2
13	7600	45.301059997664	1
13	7602	45.4	2
13	7604	45.403125	1
13	7606	45.5	2
13	7608	45.503125	1
13	7610	45.6	2
13	7612	45.601121773152	3
13	7616	45.601178773152	1
13	7620	45.7	2
13	7628	45.70019369674	1
13	7630	45.8	2
13	7632	45.803125	1
13	7634	45.9	2
13	7636	45.903125	1
13	7640	46	2
13	7642	46.001330737928	3
13	7646	46.001387737928	1
13	7650	46.1	2
13	7658	46.101175495828	1
13	7660	46.2	2
13	7662	46.203125	1
13	7664	46.3	2
13	7666	46.303125	1
13	7668	46.4	2
13	7670	46.400548005532	3
13	7674	46.400605005532	1
13	7678	46.5	2
13	7686	46.50021614305	1
13	7688	46.6	2
13	7690	46.603125	1
13	7692	46.7	2
13	7694	46.703125	1
13	7696	46.8	2
13	7698	46.800567647884	3
13	7702	46.800624647884	1
13	7706	46.9	2
13	7714	46.900331540337	1
13	7718	47	2
13	7720	47.003125	1
13	7722	47.1	2
13	7724	47.103125	1
13	7726	47.2	2
13	7728	47.200525457767	3
13	7732	47.200582457767	1
13	7736	47.3	2
13	7744	47.301171731724	1
13	7746	47.4	2
13	7748	47.403125	1
13	7750	47.5	2
13	7752	47.503125	1
13	7754	47.6	2
13	7756	47.6006346538	3
13	7760	47.6006916538	1
13	7764	47.7	2
13	7772	47.701440391279	1
13	7774	47.8	2
13	7776	47.803125	1
13	7778	47.9	2
13	7780	47.903125	1
13	7784	48	2
13	7786	48.000094230629	3
13	7790	48.000151230629	1
13	7794	48.1	2
13	7802	48.101593320481	1
13	7804	48.2	2
13	7807	48.203125	1
13	7809	48.3	2
13	7811	48.303125	1
13	7813	48.4	2
13	7815	48.400201320131	3
13	7819	48.400258320131	1
13	7823	48.5	2
13	7831	48.50107733389	1
13	7833	48.6	2
13	7835	48.603125	1
13	7837	48.7	2
13	7839	48.703125	1
13	7841	48.8	2
13	7843	48.800810195361	3
13	7847	48.800867195361	1
13	7851	48.9	2
13	7859	48.900803629831	1
13	7863	49	2
13	7865	49.003125	1
13	7867	49.1	2
13	7869	49.103125	1
13	7871	49.2	2
13	7873	49.201380502638	3
13	7877	49.201437502638	1
13	7881	49.3	2
13	7889	49.30019433484	1
13	7891	49.4	2
13	7893	49.403125	1
13	7895	49.5	2
13	7897	49.503125	1
13	7899	49.6	2
13	7901	49.600255217609	3
13	7905	49.600312217609	1
13	7909	49.7	2
13	7917	49.700930527396	1
13	7919	49.8	2
13	7921	49.803125	1
13	7923	49.9	2
13	7925	49.903125	1
13	7929	50	2
13	7931	50.001137598343	3
13	7935	50.001194598343	1
13	7939	50.1	2
13	7947	50.100340214015	1
13	7949	50.2	2
13	7951	50.203125	1
13	7953	50.3	2
13	7955	50.303125	1
13	7957	50.4	2
13	7959	50.40034048019	3
13	7963	50.40039748019	1
13	7967	50.5	2
13	7975	50.500860919995	1
13	7977	50.6	2
13	7979	50.603125	1
13	7981	50.7	2
13	7983	50.703125	1
13	7985	50.8	2
13	7987	50.801304634147	3
13	7991	50.801361634147	1
13	7995	50.9	2
13	8003	50.90100862015	1
13	8007	51	2
13	8009	51.003125	1
13	8011	51.1	2
13	8013	51.103125	1
13	8015	51.2	2
13	8017	51.200157305715	3
13	8021	51.200214305715	1
13	8025	51.3	2
13	8033	51.3013590613	1
13	8035	51.4	2
13	8037	51.403125	1
13	8039	51.5	2
13	8041	51.503125	1
13	8043	51.6	2
13	8045	51.60057105998	3
13	8049	51.60062805998	1
13	8053	51.7	2
13	8061	51.70056302707	1
13	8063	51.8	2
13	8065	51.803125	1
13	8067	51.9	2
13	8069	51.903125	1
13	8073	52	2
13	8075	52.000920464234	3
13	8079	52.000977464234	1
13	8083	52.1	2
13	8091	52.101602263806	1
13	8093	52.2	2
13	8095	52.203125	1
13	8097	52.3	2
13	8099	52.303125	1
13	8101	52.4	2
13	8103	52.40073546094	3
13	8107	52.40079246094	1
13	8111	52.5	2
13	8119	52.501611776567	1
13	8121	52.6	2
13	8123	52.603125	1
13	8125	52.7	2
13	8127	52.703125	1
13	8129	52.8	2
13	8131	52.80057169776	3
13	8135	52.80062869776	1
13	8139	52.9	2
13	8147	52.901348027432	1
13	8151	53	2
13	8153	53.003125	1
13	8155	53.1	2
13	8157	53.103125	1
13	8159	53.2	2
13	8161	53.201516480864	3
13	8165	53.201573480864	1
13	8169	53.3	2
13	8177	53.301141780133	1
13	8179	53.4	2
13	8181	53.403125	1
13	8183	53.5	2
13	8185	53.503125	1
13	8187	53.6	2
13	8189	53.600831851416	3
13	8193	53.600888851416	1
13	8197	53.7	2
13	8205	53.701203525839	1
13	8207	53.8	2
13	8209	53.803125	1
13	8211	53.9	2
13	8213	53.903125	1
13	8217	54	2
13	8219	54.000629367091	3
13	8223	54.000686367091	1
13	8227	54.1	2
13	8235	54.101424774305	1
13	8237	54.2	2
13	8239	54.203125	1
13	8241	54.3	2
13	8243	54.303125	1
13	8245	54.4	2
13	8247	54.400064446799	3
13	8251	54.400121446799	1
13	8255	54.5	2
13	8263	54.501543901394	1
13	8265	54.6	2
13	8267	54.603125	1
13	8269	54.7	2
13	8271	54.703125	1
13	8273	54.8	2
13	8275	54.800437354934	3
13	8279	54.800494354934	1
13	8283	54.9	2
13	8291	54.901388827604	1
13	8295	55	2
13	8297	55.003125	1
13	8299	55.1	2
13	8301	55.103125	1
13	8303	55.2	2
13	8305	55.20104149078	3
13	8309	55.20109849078	1
13	8313	55.3	2
13	8321	55.301058633407	1
13	8323	55.4	2
13	8325	55.403125	1
13	8327	55.5	2
13	8329	55.503125	1
13	8331	55.6	2
13	8333	55.60002895249	3
13	8337	55.60008595249	1
13	8341	55.7	2
13	8349	55.700172008008	1
13	8351	55.8	2
13	8353	55.803125	1
13	8355	55.9	2
13	8357	55.903125	1
13	8361	56	2
13	8363	56.000325065026	3
13	8367	56.000382065026	1
13	8371	56.1	2
13	8379	56.101031205401	1
13	8381	56.2	2
13	8383	56.203125	1
13	8385	56.3	2
13	8387	56.303125	1
13	8389	56.4	2
13	8391	56.400035494663	3
13	8395	56.400092494663	1
13	8399	56.5	2
13	8407	56.500609063494	1
13	8409	56.6	2
13	8411	56.603125	1
13	8413	56.7	2
13	8415	56.703125	1
13	8417	56.8	2
13	8419	56.800083578398	3
13	8423	56.800140578398	1
13	8427	56.9	2
13	8435	56.90031463338	1
13	8439	57	2
13	8441	57.003125	1
13	8443	57.1	2
13	8445	57.103125	1
13	8447	57.2	2
13	8449	57.20067520797	3
13	8453	57.20073220797	1
13	8457	57.3	2
13	8465	57.301452738947	1
13	8467	57.4	2
13	8469	57.403125	1
13	8471	57.5	2
13	8473	57.503125	1
13	8475	57.6	2
13	8477	57.600449144817	3
13	8481	57.600506144817	1
13	8485	57.7	2
13	8493	57.701346058167	1
13	8495	57.8	2
13	8497	57.803125	1
13	8499	57.9	2
13	8501	57.903125	1
13	8505	58	2
13	8507	58.000369355026	3
13	8511	58.000426355026	1
13	8515	58.1	2
13	8523	58.10088003932	1
13	8525	58.2	2
13	8527	58.203125	1
13	8529	58.3	2
13	8531	58.303125	1
13	8533	58.4	2
13	8535	58.401135981715	3
13	8539	58.401192981715	1
13	8543	58.5	2
13	8551	58.500781306247	1
13	8553	58.6	2
13	8555	58.603125	1
13	8557	58.7	2
13	8559	58.703125	1
13	8561	58.8	2
13	8563	58.800319097698	3
13	8567	58.800376097698	1
13	8571	58.9	2
13	8579	58.900821700054	1
13	8583	59	2
13	8585	59.003125	1
13	8587	59.1	2
13	8589	59.103125	1
13	8591	59.2	2
13	8593	59.200312337783	3
13	8597	59.200369337783	1
13	8601	59.3	2
13	8609	59.30046454181	1
13	8611	59.4	2
13	8613	59.403125	1
13	8615	59.5	2
13	8617	59.503125	1
13	8619	59.6	2
13	8621	59.601079468827	3
13	8625	59.601136468827	1
13	8629	59.7	2
13	8637	59.70068628854	1
13	8644	59.8	2
13	8646	59.803125	1
13	8648	59.9	2
13	8650	59.903125	1
13	8654	60	2
13	8656	60.000389952637	3
13	8660	60.000446952637	1
13	8667	60.1	2
13	8681	60.102507963478	1
13	8689	60.2	2
13	8691	60.203125	1
13	8693	60.3	2
13	8695	60.303125	1
13	8697	60.4	2
13	8699	60.400223430046	3
13	8709	60.402032930046	1
13	8717	60.5	2
13	8731	60.501849191992	1
13	8736	60.6	2
13	8738	60.603125	1
13	8740	60.7	2
13	8742	60.703125	1
13	8744	60.8	2
13	8746	60.800205123785	3
13	8750	60.800262123785	1
13	8754	60.9	2
13	8768	60.903456832217	1
13	8776	61	2
13	8778	61.003125	1
13	8780	61.1	2
13	8782	61.103125	1
13	8784	61.2	2
13	8786	61.201476029496	3
13	8790	61.201533029496	1
13	8794	61.3	2
13	8802	61.300102712595	1
13	8804	61.4	2
13	8806	61.403125	1
13	8808	61.5	2
13	8810	61.503125	1
13	8812	61.6	2
13	8814	61.600334754498	3
13	8818	61.600391754498	1
13	8822	61.7	2
13	8830	61.700639811913	1
13	8832	61.8	2
13	8834	61.803125	1
13	8836	61.9	2
13	8838	61.903125	1
13	8842	62	2
13	8844	62.001061595957	3
13	8848	62.001118595957	1
13	8852	62.1	2
13	8860	62.100206968841	1
13	8862	62.2	2
13	8864	62.203125	1
13	8866	62.3	2
13	8868	62.303125	1
13	8870	62.4	2
13	8872	62.400740457667	3
13	8876	62.400797457667	1
13	8880	62.5	2
13	8888	62.500364923537	1
13	8890	62.6	2
13	8892	62.603125	1
13	8894	62.7	2
13	8896	62.703125	1
13	8898	62.8	2
13	8900	62.80089757241	3
13	8904	62.80095457241	1
13	8908	62.9	2
13	8916	62.901529698989	1
13	8920	63	2
13	8922	63.003125	1
13	8924	63.1	2
13	8926	63.103125	1
13	8928	63.2	2
13	8930	63.200650489357	3
13	8934	63.200707489357	1
13	8938	63.3	2
13	8946	63.300637277989	1
13	8948	63.4	2
13	8950	63.403125	1
13	8952	63.5	2
13	8954	63.503125	1
13	8956	63.6	2
13	8958	63.600208067237	3
13	8962	63.600265067237	1
13	8966	63.7	2
13	8974	63.701196230538	1
13	8976	63.8	2
13	8978	63.803125	1
13	8980	63.9	2
13	8982	63.903125	1
13	8986	64	2
13	8988	64.000516651412	3
13	8992	64.000573651412	1
13	8996	64.1	2
13	9004	64.10025429195	1
13	9006	64.2	2
13	9008	64.203125	1
13	9010	64.3	2
13	9012	64.303125	1
13	9014	64.4	2
13	9016	64.400225656975	3
13	9020	64.400282656975	1
13	9024	64.5	2
13	9032	64.500449796338	1
13	9034	64.6	2
13	9036	64.603125	1
13	9038	64.7	2
13	9040	64.703125	1
13	9042	64.8	2
13	9044	64.801307411765	3
13	9048	64.801364411765	1
13	9052	64.9	2
13	9060	64.90143409694	1
13	9064	65	2
13	9066	65.003125	1
13	9068	65.1	2
13	9070	65.103125	1
13	9072	65.2	2
13	9074	65.2006453385	3
13	9078	65.2007023385	1
13	9082	65.3	2
13	9090	65.301468567027	1
13	9092	65.4	2
13	9094	65.403125	1
13	9096	65.5	2
13	9098	65.503125	1
13	9100	65.6	2
13	9102	65.600046533983	3
13	9106	65.600103533983	1
13	9111	65.7	2
13	9119	65.700506596874	1
13	9122	65.8	2
13	9124	65.803125	1
13	9126	65.9	2
13	9128	65.903125	1
13	9132	66	2
13	9134	66.001328796611	3
13	9138	66.001385796611	1
13	9142	66.1	2
13	9150	66.101568281051	1
13	9152	66.2	2
13	9154	66.203125	1
13	9156	66.3	2
13	9158	66.303125	1
13	9160	66.4	2
13	9162	66.40036022752	3
13	9166	66.40041722752	1
13	9171	66.5	2
13	9179	66.501101071992	1
13	9181	66.6	2
13	9183	66.603125	1
13	9185	66.7	2
13	9187	66.703125	1
13	9189	66.8	2
13	9191	66.801415504055	3
13	9195	66.801472504055	1
13	9199	66.9	2
13	9207	66.900843114869	1
13	9211	67	2
13	9213	67.003125	1
13	9215	67.1	2
13	9217	67.103125	1
13	9219	67.2	2
13	9221	67.200488106008	3
13	9225	67.200545106008	1
13	9229	67.3	2
13	9237	67.300647795549	1
13	9239	67.4	2
13	9241	67.403125	1
13	9243	67.5	2
13	9245	67.503125	1
13	9247	67.6	2
13	9249	67.600730213559	3
13	9253	67.600787213559	1
13	9257	67.7	2
13	9265	67.700584304735	1
13	9267	67.8	2
13	9269	67.803125	1
13	9271	67.9	2
13	9273	67.903125	1
13	9277	68	2
13	9279	68.001499540618	3
13	9283	68.001556540618	1
13	9287	68.1	2
13	9295	68.1015446835	1
13	9297	68.2	2
13	9299	68.203125	1
13	9301	68.3	2
13	9303	68.303125	1
13	9305	68.4	2
13	9307	68.401356122608	3
13	9311	68.401413122608	1
13	9315	68.5	2
13	9323	68.501140500887	1
13	9325	68.6	2
13	9327	68.603125	1
13	9329	68.7	2
13	9331	68.703125	1
13	9333	68.8	2
13	9335	68.800341854604	3
13	9339	68.800398854604	1
13	9343	68.9	2
13	9351	68.900891700682	1
13	9355	69	2
13	9357	69.003125	1
13	9359	69.1	2
13	9361	69.103125	1
13	9363	69.2	2
13	9365	69.201101219938	3
13	9369	69.201158219938	1
13	9373	69.3	2
13	9381	69.300125119438	1
13	9383	69.4	2
13	9385	69.403125	1
13	9387	69.5	2
13	9389	69.503125	1
13	9391	69.6	2
13	9393	69.600700646032	3
13	9397	69.600757646032	1
13	9401	69.7	2
13	9409	69.700443965026	1
13	9411	69.8	2
13	9413	69.803125	1
13	9415	69.9	2
13	9417	69.903125	1
13	9421	70	2
13	9423	70.000141356219	3
13	9427	70.000198356219	1
13	9431	70.1	2
13	9439	70.101530871037	1
13	9441	70.2	2
13	9443	70.203125	1
13	9445	70.3	2
13	9447	70.303125	1
13	9449	70.4	2
13	9451	70.400800798123	3
13	9455	70.400857798123	1
13	9459	70.5	2
13	9467	70.500927260797	1
13	9469	70.6	2
13	9471	70.603125	1
13	9473	70.7	2
13	9475	70.703125	1
13	9477	70.8	2
13	9479	70.800510737129	3
13	9483	70.800567737129	1
13	9487	70.9	2
13	9495	70.900615789018	1
13	9499	71	2
13	9501	71.003125	1
13	9503	71.1	2
13	9505	71.103125	1
13	9507	71.2	2
13	9509	71.201352023974	3
13	9513	71.201409023974	1
13	9517	71.3	2
13	9525	71.30007193299	1
13	9527	71.4	2
13	9529	71.403125	1
13	9531	71.5	2
13	9533	71.503125	1
13	9535	71.6	2
13	9537	71.601164904398	3
13	9541	71.601221904398	1
13	9545	71.7	2
13	9553	71.700453335955	1
13	9555	71.8	2
13	9557	71.803125	1
13	9559	71.9	2
13	9561	71.903125	1
13	9565	72	2
13	9567	72.000570728178	3
13	9571	72.000627728178	1
13	9575	72.1	2
13	9583	72.100454395985	1
13	9585	72.2	2
13	9587	72.203125	1
13	9589	72.3	2
13	9591	72.303125	1
13	9593	72.4	2
13	9595	72.40117025787	3
13	9599	72.40122725787	1
13	9603	72.5	2
13	9611	72.500323862921	1
13	9613	72.6	2
13	9615	72.603125	1
13	9617	72.7	2
13	9619	72.703125	1
13	9621	72.8	2
13	9623	72.800791830998	3
13	9627	72.800848830998	1
13	9631	72.9	2
13	9639	72.900596197975	1
13	9643	73	2
13	9645	73.003125	1
13	9647	73.1	2
13	9649	73.103125	1
13	9651	73.2	2
13	9653	73.200614694098	3
13	9657	73.200671694098	1
13	9661	73.3	2
13	9669	73.300373805928	1
13	9671	73.4	2
13	9673	73.403125	1
13	9675	73.5	2
13	9677	73.503125	1
13	9679	73.6	2
13	9681	73.600395698182	3
13	9685	73.600452698182	1
13	9689	73.7	2
13	9697	73.700155450432	1
13	9699	73.8	2
13	9701	73.803125	1
13	9703	73.9	2
13	9705	73.903125	1
13	9709	74	2
13	9711	74.001266833131	3
13	9715	74.001323833131	1
13	9719	74.1	2
13	9727	74.100210229896	1
13	9729	74.2	2
13	9731	74.203125	1
13	9733	74.3	2
13	9735	74.303125	1
13	9737	74.4	2
13	9739	74.401202865922	3
13	9743	74.401259865922	1
13	9747	74.5	2
13	9755	74.500833303497	1
13	9757	74.6	2
13	9759	74.603125	1
13	9761	74.7	2
13	9763	74.703125	1
13	9765	74.8	2
13	9767	74.801243305116	3
13	9771	74.801300305116	1
13	9775	74.9	2
13	9783	74.900166011464	1
13	9787	75	2
13	9789	75.003125	1
13	9791	75.1	2
13	9793	75.103125	1
13	9795	75.2	2
13	9797	75.200275464079	3
13	9801	75.200332464079	1
13	9805	75.3	2
13	9813	75.301518344221	1
13	9815	75.4	2
13	9817	75.403125	1
13	9819	75.5	2
13	9821	75.503125	1
13	9823	75.6	2
13	9825	75.600943970059	3
13	9829	75.601000970059	1
13	9833	75.7	2
13	9841	75.700379194339	1
13	9843	75.8	2
13	9845	75.803125	1
13	9847	75.9	2
13	9849	75.903125	1
13	9853	76	2
13	9855	76.000529325994	3
13	9859	76.000586325994	1
13	9863	76.1	2
13	9871	76.100782498571	1
13	9873	76.2	2
13	9875	76.203125	1
13	9877	76.3	2
13	9879	76.303125	1
13	9881	76.4	2
13	9883	76.401439131465	3
13	9887	76.401496131465	1
13	9896	76.5	2
13	9910	76.502473585936	1
13	9918	76.6	2
13	9920	76.603125	1
13	9922	76.7	2
13	9924	76.703125	1
13	9929	76.8	2
13	9931	76.80053526979	3
13	9941	76.80234476979	1
13	9949	76.9	2
13	9963	76.902280881965	1
13	9970	77	2
13	9972	77.003125	1
13	9974	77.1	2
13	9976	77.103125	1
13	9978	77.2	2
13	9980	77.201013716582	3
13	9984	77.201070716582	1
13	9988	77.3	2
13	10002	77.302663180088	1
13	10008	77.4	2
13	10010	77.403125	1
13	10012	77.5	2
13	10014	77.503125	1
13	10016	77.6	2
13	10018	77.600316188542	3
13	10022	77.600373188542	1
13	10026	77.7	2
13	10034	77.700387788	1
13	10036	77.8	2
13	10038	77.803125	1
13	10040	77.9	2
13	10042	77.903125	1
13	10046	78	2
13	10048	78.001400632451	3
13	10052	78.001457632451	1
13	10056	78.1	2
13	10064	78.100495085975	1
13	10066	78.2	2
13	10068	78.203125	1
13	10070	78.3	2
13	10072	78.303125	1
13	10074	78.4	2
13	10076	78.401273384791	3
13	10080	78.401330384791	1
13	10084	78.5	2
13	10092	78.500240143393	1
13	10094	78.6	2
13	10096	78.603125	1
13	10098	78.7	2
13	10100	78.703125	1
13	10102	78.8	2
13	10104	78.801294617444	3
13	10108	78.801351617444	1
13	10112	78.9	2
13	10120	78.901134122837	1
13	10124	79	2
13	10126	79.003125	1
13	10128	79.1	2
13	10130	79.103125	1
13	10132	79.2	2
13	10134	79.201019347601	3
13	10138	79.201076347601	1
13	10142	79.3	2
13	10150	79.301064238947	1
13	10152	79.4	2
13	10154	79.403125	1
13	10156	79.5	2
13	10159	79.503125	1
13	10161	79.6	2
13	10163	79.601209902212	3
13	10167	79.601266902212	1
13	10171	79.7	2
13	10179	79.700543931477	1
13	10181	79.8	2
13	10183	79.803125	1
13	10185	79.9	2
13	10187	79.903125	1
13	10191	80	2
13	10193	80.001127954708	3
13	10197	80.001184954708	1
13	10201	80.1	2
13	10209	80.101432633894	1
13	10211	80.2	2
13	10213	80.203125	1
13	10215	80.3	2
13	10217	80.303125	1
13	10219	80.4	2
13	10221	80.401337860683	3
13	10225	80.401394860683	1
13	10229	80.5	2
13	10237	80.500660878849	1
13	10239	80.6	2
13	10241	80.603125	1
13	10243	80.7	2
13	10245	80.703125	1
13	10247	80.8	2
13	10249	80.801525850867	3
13	10253	80.801582850867	1
13	10257	80.9	2
13	10265	80.901011993813	1
13	10269	81	2
13	10271	81.003125	1
13	10273	81.1	2
13	10275	81.103125	1
13	10277	81.2	2
13	10279	81.200771731596	3
13	10283	81.200828731596	1
13	10287	81.3	2
13	10295	81.300874618857	1
13	10297	81.4	2
13	10299	81.403125	1
13	10301	81.5	2
13	10303	81.503125	1
13	10305	81.6	2
13	10307	81.600497696313	3
13	10311	81.600554696313	1
13	10315	81.7	2
13	10323	81.700565068037	1
13	10325	81.8	2
13	10327	81.803125	1
13	10329	81.9	2
13	10331	81.903125	1
13	10335	82	2
13	10337	82.001017959125	3
13	10341	82.001074959125	1
13	10345	82.1	2
13	10353	82.10150996432	1
13	10356	82.2	2
13	10358	82.203125	1
13	10360	82.3	2
13	10362	82.303125	1
13	10364	82.4	2
13	10366	82.40015619522	3
13	10370	82.40021319522	1
13	10374	82.5	2
13	10382	82.501382481484	1
13	10384	82.6	2
13	10386	82.603125	1
13	10388	82.7	2
13	10390	82.703125	1
13	10392	82.8	2
13	10394	82.800002941653	3
13	10398	82.800059941653	1
13	10403	82.9	2
13	10411	82.901371421397	1
13	10415	83	2
13	10417	83.003125	1
13	10419	83.1	2
13	10421	83.103125	1
13	10423	83.2	2
13	10425	83.200081084613	3
13	10429	83.200138084613	1
13	10433	83.3	2
13	10441	83.301548242775	1
13	10443	83.4	2
13	10445	83.403125	1
13	10447	83.5	2
13	10449	83.503125	1
13	10451	83.6	2
13	10453	83.601023137579	3
13	10457	83.601080137579	1
13	10461	83.7	2
13	10469	83.700061045567	1
13	10471	83.8	2
13	10473	83.803125	1
13	10475	83.9	2
13	10477	83.903125	1
13	10481	84	2
13	10483	84.000958799114	3
13	10487	84.001015799114	1
13	10491	84.1	2
13	10499	84.100826102871	1
13	10501	84.2	2
13	10503	84.203125	1
13	10505	84.3	2
13	10507	84.303125	1
13	10509	84.4	2
13	10511	84.400841185987	3
13	10515	84.400898185987	1
13	10519	84.5	2
13	10527	84.501522656024	1
13	10529	84.6	2
13	10531	84.603125	1
13	10533	84.7	2
13	10535	84.703125	1
13	10537	84.8	2
13	10539	84.801409757187	3
13	10543	84.801466757187	1
13	10547	84.9	2
13	10555	84.900267208592	1
13	10559	85	2
13	10561	85.003125	1
13	10563	85.1	2
13	10565	85.103125	1
13	10567	85.2	2
13	10569	85.200446661581	3
13	10573	85.200503661581	1
13	10577	85.3	2
13	10585	85.300439970122	1
13	10587	85.4	2
13	10589	85.403125	1
13	10591	85.5	2
13	10593	85.503125	1
13	10595	85.6	2
13	10597	85.600986355308	3
13	10601	85.601043355308	1
13	10605	85.7	2
13	10613	85.700846326036	1
13	10615	85.8	2
13	10617	85.803125	1
13	10619	85.9	2
13	10621	85.903125	1
13	10625	86	2
13	10627	86.00074871926	3
13	10631	86.00080571926	1
13	10635	86.1	2
13	10643	86.101117200385	1
13	10645	86.2	2
13	10647	86.203125	1
13	10649	86.3	2
13	10651	86.303125	1
13	10653	86.4	2
13	10655	86.401054098086	3
13	10659	86.401111098086	1
13	10663	86.5	2
13	10671	86.50057710421	1
13	10673	86.6	2
13	10675	86.603125	1
13	10677	86.7	2
13	10679	86.703125	1
13	10681	86.8	2
13	10683	86.800751130034	3
13	10687	86.800808130034	1
13	10691	86.9	2
13	10699	86.900535861585	1
13	10703	87	2
13	10705	87.003125	1
13	10707	87.1	2
13	10709	87.103125	1
13	10711	87.2	2
13	10713	87.200250432691	3
13	10717	87.200307432691	1
13	10721	87.3	2
13	10729	87.301269351027	1
13	10731	87.4	2
13	10733	87.403125	1
13	10735	87.5	2
13	10737	87.503125	1
13	10739	87.6	2
13	10741	87.600048909384	3
13	10745	87.600105909384	1
13	10749	87.7	2
13	10757	87.700108501053	1
13	10759	87.8	2
13	10761	87.803125	1
13	10763	87.9	2
13	10765	87.903125	1
13	10769	88	2
13	10771	88.001476366553	3
13	10775	88.001533366553	1
13	10779	88.1	2
13	10787	88.101284975939	1
13	10789	88.2	2
13	10791	88.203125	1
13	10793	88.3	2
13	10795	88.303125	1
13	10797	88.4	2
13	10799	88.401210816911	3
13	10803	88.401267816911	1
13	10807	88.5	2
13	10815	88.500726760969	1
13	10817	88.6	2
13	10819	88.603125	1
13	10821	88.7	2
13	10823	88.703125	1
13	10825	88.8	2
13	10827	88.801459484098	3
13	10831	88.801516484098	1
13	10835	88.9	2
13	10843	88.901039994067	1
13	10847	89	2
13	10849	89.003125	1
13	10851	89.1	2
13	10853	89.103125	1
13	10855	89.2	2
13	10857	89.200361996089	3
13	10861	89.200418996089	1
13	10865	89.3	2
13	10873	89.301159515259	1
13	10875	89.4	2
13	10877	89.403125	1
13	10879	89.5	2
13	10881	89.503125	1
13	10883	89.6	2
13	10885	89.600156434488	3
13	10889	89.600213434488	1
13	10893	89.7	2
13	10901	89.700211024007	1
13	10903	89.8	2
13	10905	89.803125	1
13	10907	89.9	2
13	10909	89.903125	1
13	10913	90	2
13	10915	90.001125338509	3
13	10919	90.001182338509	1
13	10923	90.1	2
13	10931	90.101469426412	1
13	10933	90.2	2
13	10935	90.203125	1
13	10937	90.3	2
13	10939	90.303125	1
13	10941	90.4	2
13	10943	90.401110969816	3
13	10947	90.401167969816	1
13	10951	90.5	2
13	10959	90.501342030015	1
13	10961	90.6	2
13	10963	90.603125	1
13	10965	90.7	2
13	10967	90.703125	1
13	10969	90.8	2
13	10971	90.800381164303	3
13	10975	90.800438164303	1
13	10979	90.9	2
13	10987	90.900643700271	1
13	10991	91	2
13	10993	91.003125	1
13	10995	91.1	2
13	10997	91.103125	1
13	10999	91.2	2
13	11001	91.201002457608	3
13	11005	91.201059457608	1
13	11009	91.3	2
13	11017	91.30036153292	1
13	11019	91.4	2
13	11021	91.403125	1
13	11023	91.5	2
13	11025	91.503125	1
13	11027	91.6	2
13	11029	91.60030937483	3
13	11033	91.60036637483	1
13	11037	91.7	2
13	11045	91.700155300283	1
13	11047	91.8	2
13	11049	91.803125	1
13	11051	91.9	2
13	11053	91.903125	1
13	11057	92	2
13	11059	92.000315467973	3
13	11063	92.000372467973	1
13	11067	92.1	2
13	11075	92.10053936823	1
13	11077	92.2	2
13	11079	92.203125	1
13	11081	92.3	2
13	11083	92.303125	1
13	11085	92.4	2
13	11087	92.401417280363	3
13	11091	92.401474280363	1
13	11095	92.5	2
13	11103	92.501171529216	1
13	11105	92.6	2
13	11107	92.603125	1
13	11109	92.7	2
13	11111	92.703125	1
13	11113	92.8	2
13	11115	92.800906052305	3
13	11119	92.800963052305	1
13	11123	92.9	2
13	11131	92.901327763211	1
13	11135	93	2
13	11137	93.003125	1
13	11139	93.1	2
13	11141	93.103125	1
13	11143	93.2	2
13	11145	93.200620009505	3
13	11149	93.200677009505	1
13	11153	93.3	2
13	11161	93.300567461001	1
13	11163	93.4	2
13	11165	93.403125	1
13	11167	93.5	2
13	11169	93.503125	1
13	11171	93.6	2
13	11173	93.601219933628	3
13	11177	93.601276933628	1
13	11181	93.7	2
13	11189	93.700401369732	1
13	11191	93.8	2
13	11193	93.803125	1
13	11195	93.9	2
13	11197	93.903125	1
13	11201	94	2
13	11203	94.000127936519	3
13	11207	94.000184936519	1
13	11211	94.1	2
13	11219	94.100568720193	1
13	11221	94.2	2
13	11223	94.203125	1
13	11225	94.3	2
13	11227	94.303125	1
13	11229	94.4	2
13	11231	94.400764771051	3
13	11235	94.400821771051	1
13	11239	94.5	2
13	11247	94.501563989963	1
13	11250	94.6	2
13	11252	94.603125	1
13	11254	94.7	2
13	11256	94.703125	1
13	11258	94.8	2
13	11260	94.801136727317	3
13	11264	94.801193727317	1
13	11268	94.9	2
13	11276	94.900207308505	1
13	11280	95	2
13	11282	95.003125	1
13	11284	95.1	2
13	11286	95.103125	1
13	11288	95.2	2
13	11290	95.200718266088	3
13	11294	95.200775266088	1
13	11298	95.3	2
13	11306	95.300310578414	1
13	11308	95.4	2
13	11310	95.403125	1
13	11312	95.5	2
13	11314	95.503125	1
13	11316	95.6	2
13	11318	95.601346838216	3
13	11322	95.601403838216	1
13	11326	95.7	2
13	11334	95.701141915414	1
13	11336	95.8	2
13	11338	95.803125	1
13	11340	95.9	2
13	11342	95.903125	1
13	11346	96	2
13	11348	96.000366501962	3
13	11352	96.000423501962	1
13	11356	96.1	2
13	11364	96.100275547249	1
13	11366	96.2	2
13	11368	96.203125	1
13	11370	96.3	2
13	11372	96.303125	1
13	11374	96.4	2
13	11376	96.400468001982	3
13	11380	96.400525001982	1
13	11384	96.5	2
13	11392	96.50047376974	1
13	11394	96.6	2
13	11396	96.603125	1
13	11398	96.7	2
13	11400	96.703125	1
13	11402	96.8	2
13	11404	96.800835535924	3
13	11408	96.800892535924	1
13	11412	96.9	2
13	11420	96.901312129078	1
13	11424	97	2
13	11426	97.003125	1
13	11428	97.1	2
13	11430	97.103125	1
13	11432	97.2	2
13	11434	97.201227720077	3
13	11438	97.201284720077	1
13	11442	97.3	2
13	11450	97.300526872697	1
13	11452	97.4	2
13	11454	97.403125	1
13	11456	97.5	2
13	11458	97.503125	1
13	11460	97.6	2
13	11462	97.600999214058	3
13	11466	97.601056214058	1
13	11470	97.7	2
13	11478	97.700990005132	1
13	11480	97.8	2
13	11483	97.803125	1
13	11485	97.9	2
13	11487	97.903125	1
13	11491	98	2
13	11493	98.00119984497	3
13	11497	98.00125684497	1
13	11501	98.1	2
13	11509	98.100952185981	1
13	11511	98.2	2
13	11513	98.203125	1
13	11515	98.3	2
13	11517	98.303125	1
13	11519	98.4	2
13	11521	98.401303669347	3
13	11525	98.401360669347	1
13	11529	98.5	2
13	11537	98.500471922207	1
13	11539	98.6	2
13	11541	98.603125	1
13	11543	98.7	2
13	11545	98.703125	1
13	11547	98.8	2
13	11549	98.80104331492	3
13	11553	98.80110031492	1
13	11557	98.9	2
13	11565	98.900445814107	1
13	11569	99	2
13	11571	99.003125	1
13	11573	99.1	2
13	11575	99.103125	1
13	11577	99.2	2
13	11579	99.200204475737	3
13	11583	99.200261475737	1
13	11587	99.3	2
13	11595	99.300509784734	1
13	11597	99.4	2
13	11599	99.403125	1
13	11601	99.5	2
13	11603	99.503125	1
13	11605	99.6	2
13	11607	99.600334282882	3
13	11611	99.600391282882	1
13	11615	99.7	2
13	11623	99.701425823145	1
13	11625	99.8	2
13	11627	99.803125	1
13	11629	99.9	2
13	11631	99.903125	1
13	11635	100	2
13	11637	100.000601420224	3
13	11641	100.000658420224	1
13	11645	100.1	2
13	11653	100.100086476386	1
13	11655	100.2	2
13	11657	100.203125	1
13	11659	100.3	2
13	11661	100.303125	1
13	11663	100.4	2
13	11665	100.401314160303	3
13	11669	100.401371160303	1
13	11673	100.5	2
13	11681	100.500200348686	1
13	11683	100.6	2
13	11685	100.603125	1
13	11687	100.7	2
13	11689	100.703125	1
13	11691	100.8	2
13	11693	100.800055914027	3
13	11697	100.800112914027	1
13	11701	100.9	2
13	11709	100.900590307338	1
13	11713	101	2
13	11715	101.003125	1
13	11717	101.1	2
13	11719	101.103125	1
13	11721	101.2	2
13	11723	101.200763525831	3
13	11727	101.200820525831	1
13	11731	101.3	2
13	11739	101.300401388117	1
13	11741	101.4	2
13	11743	101.403125	1
13	11745	101.5	2
13	11747	101.503125	1
13	11749	101.6	2
13	11751	101.60097624864	3
13	11755	101.60103324864	1
13	11759	101.7	2
13	11767	101.700936631472	1
13	11769	101.8	2
13	11771	101.803125	1
13	11773	101.9	2
13	11775	101.903125	1
13	11779	102	2
13	11781	102.000422590058	3
13	11785	102.000479590058	1
13	11789	102.1	2
13	11797	102.10090007474	1
13	11799	102.2	2
13	11801	102.203125	1
13	11803	102.3	2
13	11805	102.303125	1
13	11807	102.4	2
13	11809	102.400715873844	3
13	11813	102.400772873844	1
13	11822	102.5	2
13	11836	102.502599669905	1
13	11844	102.6	2
13	11846	102.603125	1
13	11848	102.7	2
13	11850	102.703125	1
13	11855	102.8	2
13	11857	102.800865509748	3
13	11867	102.802675009748	1
13	11875	102.9	2
13	11889	102.902295593448	1
13	11896	103	2
13	11898	103.003125	1
13	11900	103.1	2
13	11902	103.103125	1
13	11904	103.2	2
13	11906	103.201163867427	3
13	11910	103.201220867427	1
13	11914	103.3	2
13	11928	103.302736805415	1
13	11934	103.4	2
13	11936	103.403125	1
13	11938	103.5	2
13	11940	103.503125	1
13	11942	103.6	2
13	11944	103.60141154635	3
13	11948	103.60146854635	1
13	11952	103.7	2
13	11960	103.701285648838	1
13	11962	103.8	2
13	11964	103.803125	1
13	11966	103.9	2
13	11968	103.903125	1
13	11972	104	2
13	11974	104.000323755392	3
13	11978	104.000380755392	1
13	11982	104.1	2
13	11990	104.101326706756	1
13	11992	104.2	2
13	11994	104.203125	1
13	11996	104.3	2
13	11998	104.303125	1
13	12000	104.4	2
13	12002	104.400211255858	3
13	12006	104.400268255858	1
13	12010	104.5	2
13	12018	104.500889730676	1
13	12020	104.6	2
13	12022	104.603125	1
13	12024	104.7	2
13	12026	104.703125	1
13	12028	104.8	2
13	12030	104.800476868964	3
13	12034	104.800533868964	1
13	12038	104.9	2
13	12046	104.90131706555	1
13	12050	105	2
13	12052	105.003125	1
13	12054	105.1	2
13	12056	105.103125	1
13	12058	105.2	2
13	12060	105.200757144472	3
13	12064	105.200814144472	1
13	12068	105.3	2
13	12076	105.300110722211	1
13	12078	105.4	2
13	12080	105.403125	1
13	12082	105.5	2
13	12084	105.503125	1
13	12086	105.6	2
13	12088	105.601561432681	3
13	12092	105.601618432681	1
13	12096	105.7	2
13	12104	105.700297895096	1
13	12106	105.8	2
13	12108	105.803125	1
13	12110	105.9	2
13	12112	105.903125	1
13	12116	106	2
13	12118	106.001107664914	3
13	12122	106.001164664914	1
13	12126	106.1	2
13	12134	106.101226205888	1
13	12136	106.2	2
13	12138	106.203125	1
13	12140	106.3	2
13	12142	106.303125	1
13	12144	106.4	2
13	12146	106.400839541905	3
13	12150	106.400896541905	1
13	12154	106.5	2
13	12162	106.500658526005	1
13	12164	106.6	2
13	12166	106.603125	1
13	12168	106.7	2
13	12170	106.703125	1
13	12172	106.8	2
13	12174	106.800282450514	3
13	12178	106.800339450514	1
13	12182	106.9	2
13	12190	106.900553883183	1
13	12194	107	2
13	12196	107.003125	1
13	12198	107.1	2
13	12200	107.103125	1
13	12202	107.2	2
13	12204	107.200138514548	3
13	12208	107.200195514548	1
13	12212	107.3	2
13	12220	107.30095093056	1
13	12222	107.4	2
13	12224	107.403125	1
13	12226	107.5	2
13	12228	107.503125	1
13	12230	107.6	2
13	12232	107.600425634031	3
13	12236	107.600482634031	1
13	12240	107.7	2
13	12248	107.700639073843	1
13	12250	107.8	2
13	12252	107.803125	1
13	12254	107.9	2
13	12256	107.903125	1
13	12260	108	2
13	12262	108.000628428773	3
13	12266	108.000685428773	1
13	12271	108.1	2
13	12279	108.101478307267	1
13	12282	108.2	2
13	12284	108.203125	1
13	12286	108.3	2
13	12288	108.303125	1
13	12290	108.4	2
13	12292	108.40010484148	3
13	12296	108.40016184148	1
13	12300	108.5	2
13	12308	108.500661809315	1
13	12310	108.6	2
13	12312	108.603125	1
13	12314	108.7	2
13	12316	108.703125	1
13	12318	108.8	2
13	12320	108.800974936795	3
13	12324	108.801031936795	1
13	12329	108.9	2
13	12337	108.901363806156	1
13	12341	109	2
13	12343	109.003125	1
13	12345	109.1	2
13	12347	109.103125	1
13	12349	109.2	2
13	12351	109.200079272849	3
13	12355	109.200136272849	1
13	12359	109.3	2
13	12367	109.3009974226	1
13	12369	109.4	2
13	12371	109.403125	1
13	12373	109.5	2
13	12375	109.503125	1
13	12377	109.6	2
13	12379	109.600474803596	3
13	12383	109.600531803596	1
13	12387	109.7	2
13	12395	109.701482196121	1
13	12397	109.8	2
13	12399	109.803125	1
13	12401	109.9	2
13	12403	109.903125	1
13	12407	110	2
13	12409	110.000315067254	3
13	12413	110.000372067254	1
13	12417	110.1	2
13	12425	110.100813500483	1
13	12427	110.2	2
13	12429	110.203125	1
13	12431	110.3	2
13	12433	110.303125	1
13	12435	110.4	2
13	12437	110.40153150558	3
13	12441	110.40158850558	1
13	12445	110.5	2
13	12453	110.501554845011	1
13	12455	110.6	2
13	12457	110.603125	1
13	12459	110.7	2
13	12461	110.703125	1
13	12463	110.8	2
13	12465	110.800428927149	3
13	12469	110.800485927149	1
13	12473	110.9	2
13	12481	110.900958275628	1
13	12485	111	2
13	12487	111.003125	1
13	12489	111.1	2
13	12491	111.103125	1
13	12493	111.2	2
13	12495	111.200533822782	3
13	12499	111.200590822782	1
13	12503	111.3	2
13	12511	111.300100517251	1
13	12513	111.4	2
13	12515	111.403125	1
13	12517	111.5	2
13	12519	111.503125	1
13	12521	111.6	2
13	12523	111.601001011971	3
13	12527	111.601058011971	1
13	12531	111.7	2
13	12539	111.701211652486	1
13	12541	111.8	2
13	12543	111.803125	1
13	12545	111.9	2
13	12547	111.903125	1
13	12551	112	2
13	12553	112.001042853804	3
13	12557	112.001099853804	1
13	12561	112.1	2
13	12569	112.101403105524	1
13	12571	112.2	2
13	12573	112.203125	1
13	12575	112.3	2
13	12577	112.303125	1
13	12579	112.4	2
13	12581	112.401272922837	3
13	12585	112.401329922837	1
13	12589	112.5	2
13	12597	112.500211151176	1
13	12599	112.6	2
13	12601	112.603125	1
13	12603	112.7	2
13	12605	112.703125	1
13	12607	112.8	2
13	12609	112.800557046578	3
13	12613	112.800614046578	1
13	12617	112.9	2
13	12628	112.901562546523	1
13	12634	113	2
13	12636	113.003125	1
13	12638	113.1	2
13	12640	113.103125	1
13	12642	113.2	2
13	12644	113.201561827774	3
13	12648	113.201618827774	1
13	12655	113.3	2
13	12669	113.302706019963	1
13	12677	113.4	2
13	12679	113.403125	1
13	12681	113.5	2
13	12683	113.503125	1
13	12685	113.6	2
13	12687	113.600721262092	3
13	12697	113.602530762092	1
13	12705	113.7	2
13	12719	113.702983013514	1
13	12724	113.8	2
13	12726	113.803125	1
13	12728	113.9	2
13	12730	113.903125	1
13	12734	114	2
13	12736	114.000955185871	3
13	12740	114.001012185871	1
13	12744	114.1	2
13	12758	114.102991668841	1
13	12764	114.2	2
13	12766	114.203125	1
13	12768	114.3	2
13	12770	114.303125	1
13	12772	114.4	2
13	12774	114.401519797444	3
13	12778	114.401576797444	1
13	12782	114.5	2
13	12790	114.501527764435	1
13	12792	114.6	2
13	12794	114.603125	1
13	12796	114.7	2
13	12798	114.703125	1
13	12800	114.8	2
13	12802	114.800319597234	3
13	12806	114.800376597234	1
13	12810	114.9	2
13	12818	114.901062367502	1
13	12822	115	2
13	12824	115.003125	1
13	12826	115.1	2
13	12828	115.103125	1
13	12830	115.2	2
13	12832	115.200256925783	3
13	12836	115.200313925783	1
13	12840	115.3	2
13	12848	115.300906102161	1
13	12850	115.4	2
13	12852	115.403125	1
13	12854	115.5	2
13	12856	115.503125	1
13	12858	115.6	2
13	12860	115.600255347973	3
13	12864	115.600312347973	1
13	12868	115.7	2
13	12876	115.701559338955	1
13	12878	115.8	2
13	12880	115.803125	1
13	12882	115.9	2
13	12884	115.903125	1
13	12888	116	2
13	12890	116.001541235734	3
13	12894	116.001598235734	1
13	12898	116.1	2
13	12906	116.100927430423	1
13	12908	116.2	2
[...]
32	16567	164.100976425624	2
32	16569	164.101033425624	1
32	16569	164.101033425624	0
32	16593	164.501467138885	1
32	16595	164.501467138885	2
32	16597	164.501524138885	1
32	16597	164.501524138885	0
32	16621	164.900478630037	1
32	16623	164.900478630037	2
32	16625	164.900535630037	1
32	16625	164.900535630037	0
32	16651	165.300283002263	1
32	16653	165.300283002263	2
32	16655	165.300340002263	1
32	16655	165.300340002263	0
32	16679	165.701367845843	1
32	16681	165.701367845843	2
32	16683	165.701424845843	1
32	16683	165.701424845843	0
32	16709	166.100474352811	1
32	16711	166.100474352811	2
32	16713	166.100531352811	1
32	16713	166.100531352811	0
32	16737	166.500433832919	1
32	16739	166.500433832919	2
32	16741	166.500490832919	1
32	16741	166.500490832919	0
32	16765	166.900234574845	1
32	16767	166.900234574845	2
32	16769	166.900291574845	1
32	16769	166.900291574845	0
32	16795	167.300694815341	1
32	16797	167.300694815341	2
32	16799	167.300751815341	1
32	16799	167.300751815341	0
32	16823	167.700361679259	1
32	16825	167.700361679259	2
32	16827	167.700418679259	1
32	16827	167.700418679259	0
32	16853	168.100560721249	1
32	16855	168.100560721249	2
32	16857	168.100617721249	1
32	16857	168.100617721249	0
32	16881	168.500521322771	1
32	16883	168.500521322771	2
32	16885	168.500578322771	1
32	16885	168.500578322771	0
32	16909	168.900976386826	1
32	16911	168.900976386826	2
32	16913	168.901033386826	1
32	16913	168.901033386826	0
32	16939	169.30069640968	1
32	16941	169.30069640968	2
32	16943	169.30075340968	1
32	16943	169.30075340968	0
32	16967	169.701059286624	1
32	16969	169.701059286624	2
32	16971	169.701116286624	1
32	16971	169.701116286624	0
32	16997	170.10047008886	1
32	16999	170.10047008886	2
32	17001	170.10052708886	1
32	17001	170.10052708886	0
32	17033	170.500503721555	1
32	17035	170.500503721555	2
32	17037	170.500560721555	1
32	17041	170.502066221555	2
32	17043	170.502329221555	1
32	17043	170.502329221555	0
32	17083	170.901559811764	1
32	17085	170.901559811764	2
32	17087	170.901616811764	1
32	17091	170.903122311764	2
32	17093	170.903385311764	1
32	17093	170.903385311764	0
32	17122	171.300372302981	1
32	17124	171.300372302981	2
32	17126	171.300429302981	1
32	17130	171.301934802981	2
32	17132	171.302373802981	1
32	17132	171.302373802981	0
32	17160	171.701191971062	1
32	17162	171.701191971062	2
32	17164	171.701248971062	1
32	17164	171.701248971062	0
32	17190	172.101093104191	1
32	17192	172.101093104191	2
32	17194	172.101150104191	1
32	17194	172.101150104191	0
32	17218	172.501012251019	1
32	17220	172.501012251019	2
32	17222	172.501069251019	1
32	17222	172.501069251019	0
32	17246	172.900189940002	1
32	17248	172.900189940002	2
32	17250	172.900246940002	1
32	17250	172.900246940002	0
32	17280	173.300008706741	1
32	17282	173.300008706741	2
32	17284	173.300065706741	1
32	17288	173.301571206741	2
32	17290	173.302418206741	1
32	17290	173.302418206741	0
32	17319	173.701164926965	1
32	17321	173.701164926965	2
32	17323	173.701221926965	1
32	17323	173.701221926965	0
32	17349	174.100129732026	1
32	17351	174.100129732026	2
32	17353	174.100186732026	1
32	17353	174.100186732026	0
32	17377	174.500379248619	1
32	17379	174.500379248619	2
32	17381	174.500436248619	1
32	17381	174.500436248619	0
32	17405	174.901545668178	1
32	17407	174.901545668178	2
32	17409	174.901602668178	1
32	17409	174.901602668178	0
32	17435	175.301509553403	1
32	17437	175.301509553403	2
32	17439	175.301566553403	1
32	17439	175.301566553403	0
32	17467	175.701439569917	1
32	17469	175.701439569917	2
32	17471	175.701496569917	1
32	17475	175.703002069917	2
32	17477	175.703597069917	1
32	17477	175.703597069917	0
32	17511	176.100911350755	1
32	17513	176.100911350755	2
32	17515	176.100968350755	1
32	17519	176.102473850755	2
32	17521	176.102840850755	1
32	17521	176.102840850755	0
32	17550	176.500712862558	1
32	17552	176.500712862558	2
32	17554	176.500769862558	1
32	17554	176.500769862558	0
32	17579	176.900722402508	1
32	17581	176.900722402508	2
32	17583	176.900779402508	1
32	17583	176.900779402508	0
32	17609	177.300530842414	1
32	17611	177.300530842414	2
32	17613	177.300587842414	1
32	17613	177.300587842414	0
32	17641	177.701511489539	1
32	17643	177.701511489539	2
32	17645	177.701568489539	1
32	17649	177.703073989539	2
32	17651	177.703724989539	1
32	17651	177.703724989539	0
32	17681	178.101274968044	1
32	17683	178.101274968044	2
32	17685	178.101331968044	1
32	17685	178.101331968044	0
32	17709	178.501549883185	1
32	17711	178.501549883185	2
32	17713	178.501606883185	1
32	17713	178.501606883185	0
32	17738	178.900470127672	1
32	17740	178.900470127672	2
32	17742	178.900527127672	1
32	17742	178.900527127672	0
32	17768	179.300906016757	1
32	17770	179.300906016757	2
32	17772	179.300963016757	1
32	17772	179.300963016757	0
32	17796	179.701065731031	1
32	17798	179.701065731031	2
32	17800	179.701122731031	1
32	17800	179.701122731031	0
32	17826	180.100599420549	1
32	17828	180.100599420549	2
32	17830	180.100656420549	1
32	17830	180.100656420549	0
32	17855	180.500912778123	1
32	17857	180.500912778123	2
32	17859	180.500969778123	1
32	17859	180.500969778123	0
32	17883	180.90030705815	1
32	17885	180.90030705815	2
32	17887	180.90036405815	1
32	17887	180.90036405815	0
32	17913	181.300490419073	1
32	17915	181.300490419073	2
32	17917	181.300547419073	1
32	17917	181.300547419073	0
32	17941	181.700210854429	1
32	17943	181.700210854429	2
32	17945	181.700267854429	1
32	17945	181.700267854429	0
32	17971	182.101004341725	1
32	17973	182.101004341725	2
32	17975	182.101061341725	1
32	17975	182.101061341725	0
32	17999	182.500522098409	1
32	18001	182.500522098409	2
32	18003	182.500579098409	1
32	18003	182.500579098409	0
32	18027	182.900663806624	1
32	18029	182.900663806624	2
32	18031	182.900720806624	1
32	18031	182.900720806624	0
32	18057	183.300594634808	1
32	18059	183.300594634808	2
32	18061	183.300651634808	1
32	18061	183.300651634808	0
32	18085	183.700082421617	1
32	18087	183.700082421617	2
32	18089	183.700139421617	1
32	18089	183.700139421617	0
32	18115	184.101399771643	1
32	18117	184.101399771643	2
32	18119	184.101456771643	1
32	18119	184.101456771643	0
32	18143	184.501136679171	1
32	18145	184.501136679171	2
32	18147	184.501193679171	1
32	18147	184.501193679171	0
32	18171	184.900506301871	1
32	18173	184.900506301871	2
32	18175	184.900563301871	1
32	18175	184.900563301871	0
32	18201	185.301404217685	1
32	18203	185.301404217685	2
32	18205	185.301461217685	1
32	18205	185.301461217685	0
32	18229	185.701055661282	1
32	18231	185.701055661282	2
32	18233	185.701112661282	1
32	18233	185.701112661282	0
32	18259	186.10154948614	1
32	18261	186.10154948614	2
32	18263	186.10160648614	1
32	18263	186.10160648614	0
32	18287	186.500723770254	1
32	18289	186.500723770254	2
32	18291	186.500780770254	1
32	18291	186.500780770254	0
32	18315	186.900171262305	1
32	18317	186.900171262305	2
32	18319	186.900228262305	1
32	18319	186.900228262305	0
32	18350	187.300189997669	1
32	18352	187.300189997669	2
32	18354	187.300246997669	1
32	18358	187.301752497669	2
32	18360	187.302015497669	1
32	18360	187.302015497669	0
32	18403	187.701166361887	1
32	18405	187.701166361887	2
32	18407	187.701223361887	1
32	18411	187.702728861887	2
32	18413	187.702991861887	1
32	18413	187.702991861887	0
32	18442	188.100904293285	1
32	18444	188.100904293285	2
32	18446	188.100961293285	1
32	18450	188.102466793285	2
32	18452	188.102881793285	1
32	18452	188.102881793285	0
32	18480	188.50033876483	1
32	18482	188.50033876483	2
32	18484	188.50039576483	1
32	18484	188.50039576483	0
32	18508	188.900855618594	1
32	18510	188.900855618594	2
32	18512	188.900912618594	1
32	18512	188.900912618594	0
32	18538	189.300827818553	1
32	18540	189.300827818553	2
32	18542	189.300884818553	1
32	18542	189.300884818553	0
32	18566	189.701340275515	1
32	18568	189.701340275515	2
32	18570	189.701397275515	1
32	18570	189.701397275515	0
32	18596	190.100082931621	1
32	18598	190.100082931621	2
32	18600	190.100139931621	1
32	18600	190.100139931621	0
32	18625	190.500176642734	1
32	18627	190.500176642734	2
32	18629	190.500233642734	1
32	18629	190.500233642734	0
32	18653	190.900691564209	1
32	18655	190.900691564209	2
32	18657	190.900748564209	1
32	18657	190.900748564209	0
32	18683	191.300217839203	1
32	18685	191.300217839203	2
32	18687	191.300274839203	1
32	18687	191.300274839203	0
32	18711	191.701544910075	1
32	18713	191.701544910075	2
32	18715	191.701601910075	1
32	18715	191.701601910075	0
32	18741	192.100309769653	1
32	18743	192.100309769653	2
32	18745	192.100366769653	1
32	18745	192.100366769653	0
32	18769	192.500968176556	1
32	18771	192.500968176556	2
32	18773	192.501025176556	1
32	18773	192.501025176556	0
32	18797	192.900693214039	1
32	18799	192.900693214039	2
32	18801	192.900750214039	1
32	18801	192.900750214039	0
32	18828	193.301221366185	1
32	18830	193.301221366185	2
32	18832	193.301278366185	1
32	18832	193.301278366185	0
32	18857	193.700082233703	1
32	18859	193.700082233703	2
32	18861	193.700139233703	1
32	18861	193.700139233703	0
32	18887	194.10050686729	1
32	18889	194.10050686729	2
32	18891	194.10056386729	1
32	18891	194.10056386729	0
32	18915	194.500734019713	1
32	18917	194.500734019713	2
32	18919	194.500791019713	1
32	18919	194.500791019713	0
32	18943	194.900177553015	1
32	18945	194.900177553015	2
32	18947	194.900234553015	1
32	18947	194.900234553015	0
32	18973	195.301001839546	1
32	18975	195.301001839546	2
32	18977	195.301058839546	1
32	18977	195.301058839546	0
32	19001	195.700834710405	1
32	19003	195.700834710405	2
32	19005	195.700891710405	1
32	19005	195.700891710405	0
32	19031	196.101291888458	1
32	19033	196.101291888458	2
32	19035	196.101348888458	1
32	19035	196.101348888458	0
32	19059	196.5006910704	1
32	19061	196.5006910704	2
32	19063	196.5007480704	1
32	19063	196.5007480704	0
32	19087	196.900460969995	1
32	19089	196.900460969995	2
32	19091	196.900517969995	1
32	19091	196.900517969995	0
32	19117	197.30049358147	1
32	19119	197.30049358147	2
32	19121	197.30055058147	1
32	19121	197.30055058147	0
32	19145	197.700368203167	1
32	19147	197.700368203167	2
32	19149	197.700425203167	1
32	19149	197.700425203167	0
32	19175	198.101457789484	1
32	19177	198.101457789484	2
32	19179	198.101514789484	1
32	19179	198.101514789484	0
32	19203	198.501247988473	1
32	19205	198.501247988473	2
32	19207	198.501304988473	1
32	19207	198.501304988473	0
32	19231	198.900536653558	1
32	19233	198.900536653558	2
32	19235	198.900593653558	1
32	19235	198.900593653558	0
32	19261	199.300702865422	1
32	19263	199.300702865422	2
32	19265	199.300759865422	1
32	19265	199.300759865422	0
32	19289	199.700157984373	1
32	19291	199.700157984373	2
32	19293	199.700214984373	1
32	19293	199.700214984373	0
32	19319	200.100920905695	1
32	19321	200.100920905695	2
32	19323	200.100977905695	1
32	19323	200.100977905695	0
32	19347	200.501138916371	1
32	19349	200.501138916371	2
32	19351	200.501195916371	1
32	19351	200.501195916371	0
32	19375	200.900356176246	1
32	19377	200.900356176246	2
32	19379	200.900413176246	1
32	19379	200.900413176246	0
32	19405	201.300690648967	1
32	19407	201.300690648967	2
32	19409	201.300747648967	1
32	19409	201.300747648967	0
32	19433	201.701054449378	1
32	19435	201.701054449378	2
32	19437	201.701111449378	1
32	19437	201.701111449378	0
32	19463	202.100691630493	1
32	19465	202.100691630493	2
32	19467	202.100748630493	1
32	19467	202.100748630493	0
32	19491	202.500860227258	1
32	19493	202.500860227258	2
32	19495	202.500917227258	1
32	19495	202.500917227258	0
32	19519	202.900304451968	1
32	19521	202.900304451968	2
32	19523	202.900361451968	1
32	19523	202.900361451968	0
32	19549	203.301242184659	1
32	19551	203.301242184659	2
32	19553	203.301299184659	1
32	19553	203.301299184659	0
32	19577	203.700171269794	1
32	19579	203.700171269794	2
32	19581	203.700228269794	1
32	19581	203.700228269794	0
32	19607	204.100735491757	1
32	19609	204.100735491757	2
32	19611	204.100792491757	1
32	19611	204.100792491757	0
32	19635	204.500454868942	1
32	19637	204.500454868942	2
32	19639	204.500511868942	1
32	19639	204.500511868942	0
32	19663	204.900164671671	1
32	19665	204.900164671671	2
32	19667	204.900221671671	1
32	19667	204.900221671671	0
32	19693	205.301336785903	1
32	19695	205.301336785903	2
32	19697	205.301393785903	1
32	19697	205.301393785903	0
32	19722	205.700312806784	1
32	19724	205.700312806784	2
32	19726	205.700369806784	1
32	19726	205.700369806784	0
32	19752	206.10073323091	1
32	19754	206.10073323091	2
32	19756	206.10079023091	1
32	19756	206.10079023091	0
32	19780	206.500957435812	1
32	19782	206.500957435812	2
32	19784	206.501014435812	1
32	19784	206.501014435812	0
32	19808	206.900421269067	1
32	19810	206.900421269067	2
32	19812	206.900478269067	1
32	19812	206.900478269067	0
32	19838	207.300749474435	1
32	19840	207.300749474435	2
32	19842	207.300806474435	1
32	19842	207.300806474435	0
32	19866	207.700828857583	1
32	19868	207.700828857583	2
32	19870	207.700885857583	1
32	19870	207.700885857583	0
32	19896	208.100695026353	1
32	19898	208.100695026353	2
32	19900	208.100752026353	1
32	19900	208.100752026353	0
32	19924	208.500567435397	1
32	19926	208.500567435397	2
32	19928	208.500624435397	1
32	19928	208.500624435397	0
32	19953	208.900400033464	1
32	19955	208.900400033464	2
32	19957	208.900457033464	1
32	19957	208.900457033464	0
32	19983	209.301415895898	1
32	19985	209.301415895898	2
32	19987	209.301472895898	1
32	19987	209.301472895898	0
32	20011	209.700796062658	1
32	20013	209.700796062658	2
32	20015	209.700853062658	1
32	20015	209.700853062658	0
32	20041	210.101095846794	1
32	20043	210.101095846794	2
32	20045	210.101152846794	1
32	20045	210.101152846794	0
32	20074	210.500834397789	1
32	20076	210.500834397789	2
32	20078	210.500891397789	1
32	20082	210.502396897789	2
32	20084	210.502659897789	1
32	20084	210.502659897789	0
32	20127	210.90044697232	1
32	20129	210.90044697232	2
32	20131	210.90050397232	1
32	20135	210.90200947232	2
32	20137	210.90227247232	1
32	20137	210.90227247232	0
32	20166	211.300747882379	1
32	20168	211.300747882379	2
32	20170	211.300804882379	1
32	20174	211.302310382379	2
32	20176	211.302705382379	1
32	20176	211.302705382379	0
32	20204	211.701286271706	1
32	20206	211.701286271706	2
32	20208	211.701343271706	1
32	20208	211.701343271706	0
32	20234	212.101368738967	1
32	20236	212.101368738967	2
32	20238	212.101425738967	1
32	20238	212.101425738967	0
32	20262	212.501469992831	1
32	20264	212.501469992831	2
32	20266	212.501526992831	1
32	20266	212.501526992831	0
32	20290	212.900337369049	1
32	20292	212.900337369049	2
32	20294	212.900394369049	1
32	20294	212.900394369049	0
32	20320	213.300539399274	1
32	20322	213.300539399274	2
32	20324	213.300596399274	1
32	20324	213.300596399274	0
32	20348	213.700185856157	1
32	20350	213.700185856157	2
32	20352	213.700242856157	1
32	20352	213.700242856157	0
32	20378	214.101544148819	1
32	20380	214.101544148819	2
32	20382	214.101601148819	1
32	20382	214.101601148819	0
32	20406	214.500985955333	1
32	20408	214.500985955333	2
32	20410	214.501042955333	1
32	20410	214.501042955333	0
32	20434	214.901101366957	1
32	20436	214.901101366957	2
32	20438	214.901158366957	1
32	20438	214.901158366957	0
32	20464	215.300673028057	1
32	20466	215.300673028057	2
32	20468	215.300730028057	1
32	20468	215.300730028057	0
32	20492	215.700380548024	1
32	20494	215.700380548024	2
32	20496	215.700437548024	1
32	20496	215.700437548024	0
32	20523	216.100605045492	1
32	20525	216.100605045492	2
32	20527	216.100662045492	1
32	20527	216.100662045492	0
32	20556	216.500451075548	1
32	20558	216.500451075548	2
32	20560	216.500508075548	1
32	20564	216.502013575548	2
32	20566	216.502232575548	1
32	20566	216.502232575548	0
32	20595	216.900831881273	1
32	20597	216.900831881273	2
32	20599	216.900888881273	1
32	20599	216.900888881273	0
32	20625	217.301275345193	1
32	20627	217.301275345193	2
32	20629	217.301332345193	1
32	20629	217.301332345193	0
32	20653	217.701299661842	1
32	20655	217.701299661842	2
32	20657	217.701356661842	1
32	20657	217.701356661842	0
32	20683	218.100447219085	1
32	20685	218.100447219085	2
32	20687	218.100504219085	1
32	20687	218.100504219085	0
32	20711	218.500277471995	1
32	20713	218.500277471995	2
32	20715	218.500334471995	1
32	20715	218.500334471995	0
32	20739	218.90112988421	1
32	20741	218.90112988421	2
32	20743	218.90118688421	1
32	20743	218.90118688421	0
32	20770	219.300651603938	1
32	20772	219.300651603938	2
32	20774	219.300708603938	1
32	20774	219.300708603938	0
32	20798	219.700284299347	1
32	20800	219.700284299347	2
32	20802	219.700341299347	1
32	20802	219.700341299347	0
32	20828	220.100944292087	1
32	20830	220.100944292087	2
32	20832	220.101001292087	1
32	20832	220.101001292087	0
32	20856	220.500175836664	1
32	20858	220.500175836664	2
32	20860	220.500232836664	1
32	20860	220.500232836664	0
32	20884	220.900149246259	1
32	20886	220.900149246259	2
32	20888	220.900206246259	1
32	20888	220.900206246259	0
32	20914	221.300018829996	1
32	20916	221.300018829996	2
32	20918	221.300075829996	1
32	20918	221.300075829996	0
32	20942	221.700323572891	1
32	20944	221.700323572891	2
32	20946	221.700380572891	1
32	20946	221.700380572891	0
32	20972	222.100748450392	1
32	20974	222.100748450392	2
32	20976	222.100805450392	1
32	20976	222.100805450392	0
32	21000	222.500253608745	1
32	21002	222.500253608745	2
32	21004	222.500310608745	1
32	21004	222.500310608745	0
32	21028	222.900107324302	1
32	21030	222.900107324302	2
32	21032	222.900164324302	1
32	21032	222.900164324302	0
32	21058	223.300769549194	1
32	21060	223.300769549194	2
32	21062	223.300826549194	1
32	21062	223.300826549194	0
32	21086	223.701411164768	1
32	21088	223.701411164768	2
32	21090	223.701468164768	1
32	21090	223.701468164768	0
32	21116	224.100017970137	1
32	21118	224.100017970137	2
32	21120	224.100074970137	1
32	21120	224.100074970137	0
32	21144	224.500356372174	1
32	21146	224.500356372174	2
32	21148	224.500413372174	1
32	21148	224.500413372174	0
32	21172	224.901408312668	1
32	21174	224.901408312668	2
32	21176	224.901465312668	1
32	21176	224.901465312668	0
32	21202	225.300990998092	1
32	21204	225.300990998092	2
32	21206	225.301047998092	1
32	21206	225.301047998092	0
32	21230	225.701297614151	1
32	21232	225.701297614151	2
32	21234	225.701354614151	1
32	21234	225.701354614151	0
32	21260	226.101420796042	1
32	21262	226.101420796042	2
32	21264	226.101477796042	1
32	21264	226.101477796042	0
32	21288	226.500341791891	1
32	21290	226.500341791891	2
32	21292	226.500398791891	1
32	21292	226.500398791891	0
32	21316	226.901155522861	1
32	21318	226.901155522861	2
32	21320	226.901212522861	1
32	21320	226.901212522861	0
32	21346	227.300407838179	1
32	21348	227.300407838179	2
32	21350	227.300464838179	1
32	21350	227.300464838179	0
32	21374	227.701466298476	1
32	21376	227.701466298476	2
32	21378	227.701523298476	1
32	21378	227.701523298476	0
32	21404	228.101495546131	1
32	21406	228.101495546131	2
32	21408	228.101552546131	1
32	21408	228.101552546131	0
32	21432	228.500250331874	1
32	21434	228.500250331874	2
32	21436	228.500307331874	1
32	21436	228.500307331874	0
32	21460	228.901269147008	1
32	21462	228.901269147008	2
32	21464	228.901326147008	1
32	21464	228.901326147008	0
32	21490	229.300073640126	1
32	21492	229.300073640126	2
32	21494	229.300130640126	1
32	21494	229.300130640126	0
32	21518	229.700936562616	1
32	21520	229.700936562616	2
32	21522	229.700993562616	1
32	21522	229.700993562616	0
32	21548	230.100753013906	1
32	21550	230.100753013906	2
32	21552	230.100810013906	1
32	21552	230.100810013906	0
