version 2
run BaseConfig-0-20170214-23:31:56-3804
attr N 5
attr configname BaseConfig
attr datetime 20170214-23:31:56
attr experiment BaseConfig
attr inifile omnetpp.ini
attr iterationvars $N=5
attr iterationvars2 "$N=5, $repetition=0"
attr measurement $N=5
attr network Base
attr processid 3804
attr repetition 0
attr replication #0
attr resultdir results
attr runnumber 0
attr seedset 0
param *.configurator.addStaticRoutes false
param *.configurator.config "xml(\"<config><interface hosts='**' address='10.0.0.x' netmask='255.255.255.0'/><autoroute metric='errorRate'/></config>\")"
param *.configurator.optimizeRoutes false
param *.node*[*].wlan[*].mac.numSlots 2*${N}
param *.node*[*].wlan[*].macType "\"LMacLayer\""
param *.node*[*].wlan[*].radio.transmitter.bitrate 2Mbps
param *.node*[*].wlan[*].radio.transmitter.communicationRange 200m
param *.node*[*].wlan[*].radio.transmitter.detectionRange 0m
param *.node*[*].wlan[*].radio.transmitter.headerBitLength 100b
param *.node*[*].wlan[*].radio.transmitter.preambleDuration 0s
param *.node*[*].wlan[*].radioType "\"IdealRadio\""
param *.node*[*].wlan[*].typename "\"WirelessNic\""
param *.node*[*].wlan[0].radio.receiver.ignoreInterference true
param *.node*[*].wlan[0].radio.transmitter.interferenceRange 0m
param *.nodeMaster[*].numUdpApps 1
param *.nodeMaster[*].routingTable.netmaskRoutes "\"\""
param *.nodeMaster[0].mobility.initFromDisplayString false
param *.nodeMaster[0].mobility.initialX 250m
param *.nodeMaster[0].mobility.initialY 100m
param *.nodeMaster[0].mobility.initialZ 0m
param *.nodeMaster[0].mobilityType "\"StationaryMobility\""
param *.nodeMaster[0].udpApp[0].localPort 5000
param *.nodeMaster[0].udpApp[0].typename "\"UDPSink\""
param *.nodeMaster[1..].**.cx 250m
param *.nodeMaster[1..].**.cy 100m
param *.nodeMaster[1..].**.cz 0m
param *.nodeMaster[1..].**.r 50m
param *.nodeMaster[1..].**.startAngle "parentIndex() * (360deg/(${N}-1))"
param *.nodeMaster[1..].mobilityType "\"CircleMobility\""
param *.nodeMaster[1..].udpApp[0].destAddresses "\"nodeMaster[0]\""
param *.nodeMaster[1..].udpApp[0].destPort 5000
param *.nodeMaster[1..].udpApp[0].messageLength 1000B
param *.nodeMaster[1..].udpApp[0].packetName "\"UDPData\""
param *.nodeMaster[1..].udpApp[0].sendInterval exponential(12ms)
param *.nodeMaster[1..].udpApp[0].startTime 5s
param *.nodeMaster[1..].udpApp[0].typename "\"UDPBasicApp\""
param *.numMasters ${N=5}
param *.radioMediumType "\"IdealRadioMedium\""
param *.visualizer.dataLinkVisualizer.packetNameFilter "\"UDPData*\""
param *.visualizer.networkRouteVisualizer.packetNameFilter "\"UDPData*\""
param *.visualizer.physicalLinkVisualizer.packetNameFilter "\"UDPData*\""

vector 13  Base.nodeMaster[0].wlan[0].radio  radioMode:vector  ETV
attr interpolationmode  sample-hold
attr source  radioModeChanged
attr title  "Radio mode, vector"
vector 30  Base.nodeMaster[1].wlan[0].radio  radioMode:vector  ETV
attr interpolationmode  sample-hold
attr source  radioModeChanged
attr title  "Radio mode, vector"
vector 47  Base.nodeMaster[2].wlan[0].radio  radioMode:vector  ETV
attr interpolationmode  sample-hold
attr source  radioModeChanged
attr title  "Radio mode, vector"
vector 64  Base.nodeMaster[3].wlan[0].radio  radioMode:vector  ETV
attr interpolationmode  sample-hold
attr source  radioModeChanged
attr title  "Radio mode, vector"
vector 81  Base.nodeMaster[4].wlan[0].radio  radioMode:vector  ETV
attr interpolationmode  sample-hold
attr source  radioModeChanged
attr title  "Radio mode, vector"
vector 14  Base.nodeMaster[0].wlan[0].radio  receptionState:vector  ETV
attr interpolationmode  sample-hold
attr source  receptionStateChanged
attr title  "Radio reception state, vector"
vector 31  Base.nodeMaster[1].wlan[0].radio  receptionState:vector  ETV
attr interpolationmode  sample-hold
attr source  receptionStateChanged
attr title  "Radio reception state, vector"
vector 48  Base.nodeMaster[2].wlan[0].radio  receptionState:vector  ETV
attr interpolationmode  sample-hold
attr source  receptionStateChanged
attr title  "Radio reception state, vector"
vector 65  Base.nodeMaster[3].wlan[0].radio  receptionState:vector  ETV
attr interpolationmode  sample-hold
attr source  receptionStateChanged
attr title  "Radio reception state, vector"
vector 82  Base.nodeMaster[4].wlan[0].radio  receptionState:vector  ETV
attr interpolationmode  sample-hold
attr source  receptionStateChanged
attr title  "Radio reception state, vector"
vector 49  Base.nodeMaster[2].wlan[0].radio  transmissionState:vector  ETV
attr interpolationmode  sample-hold
attr source  transmissionStateChanged
attr title  "Radio transmission state, vector"
vector 85  Base.nodeMaster[1].wlan[0].mac  slotChange  ETV
vector 66  Base.nodeMaster[3].wlan[0].radio  transmissionState:vector  ETV
attr interpolationmode  sample-hold
attr source  transmissionStateChanged
attr title  "Radio transmission state, vector"
vector 83  Base.nodeMaster[4].wlan[0].radio  transmissionState:vector  ETV
attr interpolationmode  sample-hold
attr source  transmissionStateChanged
attr title  "Radio transmission state, vector"
vector 32  Base.nodeMaster[1].wlan[0].radio  transmissionState:vector  ETV
attr interpolationmode  sample-hold
attr source  transmissionStateChanged
attr title  "Radio transmission state, vector"
vector 15  Base.nodeMaster[0].wlan[0].radio  transmissionState:vector  ETV
attr interpolationmode  sample-hold
attr source  transmissionStateChanged
attr title  "Radio transmission state, vector"
vector 17  Base.nodeMaster[1].udpApp[0]  sentPk:vector(packetBytes)  ETV
attr interpolationmode  none
attr source  sentPk
attr title  "packets sent, vector(packetBytes)"
vector 34  Base.nodeMaster[2].udpApp[0]  sentPk:vector(packetBytes)  ETV
attr interpolationmode  none
attr source  sentPk
attr title  "packets sent, vector(packetBytes)"
vector 51  Base.nodeMaster[3].udpApp[0]  sentPk:vector(packetBytes)  ETV
attr interpolationmode  none
attr source  sentPk
attr title  "packets sent, vector(packetBytes)"
vector 68  Base.nodeMaster[4].udpApp[0]  sentPk:vector(packetBytes)  ETV
attr interpolationmode  none
attr source  sentPk
attr title  "packets sent, vector(packetBytes)"
vector 20  Base.nodeMaster[1].udp  sentPk:vector(packetBytes)  ETV
attr interpolationmode  none
attr source  sentPk
attr title  "packets sent, vector(packetBytes)"
vector 37  Base.nodeMaster[2].udp  sentPk:vector(packetBytes)  ETV
attr interpolationmode  none
attr source  sentPk
attr title  "packets sent, vector(packetBytes)"
vector 54  Base.nodeMaster[3].udp  sentPk:vector(packetBytes)  ETV
attr interpolationmode  none
attr source  sentPk
attr title  "packets sent, vector(packetBytes)"
vector 71  Base.nodeMaster[4].udp  sentPk:vector(packetBytes)  ETV
attr interpolationmode  none
attr source  sentPk
attr title  "packets sent, vector(packetBytes)"
vector 8  Base.nodeMaster[0].networkLayer.arp  sentReq:vector  ETV
attr title  "ARP request sent, vector"
vector 43  Base.nodeMaster[2].networkLayer.arp  sentReply:vector  ETV
attr title  "ARP replies sent, vector"
vector 60  Base.nodeMaster[3].networkLayer.arp  sentReply:vector  ETV
attr title  "ARP replies sent, vector"
vector 77  Base.nodeMaster[4].networkLayer.arp  sentReply:vector  ETV
attr title  "ARP replies sent, vector"
vector 42  Base.nodeMaster[2].networkLayer.arp  sentReq:vector  ETV
attr title  "ARP request sent, vector"
vector 4  Base.nodeMaster[0].udp  rcvdPk:vector(packetBytes)  ETV
attr interpolationmode  none
attr source  rcvdPk
attr title  "packets received, vector(packetBytes)"
vector 5  Base.nodeMaster[0].udp  passedUpPk:vector(count)  ETV
attr interpolationmode  none
attr title  "packets passed up, vector(count)"
vector 0  Base.nodeMaster[0].udpApp[0]  rcvdPk:vector(packetBytes)  ETV
attr interpolationmode  none
attr source  rcvdPk
attr title  "packets received, vector(packetBytes)"
vector 1  Base.nodeMaster[0].udpApp[0]  endToEndDelay:vector  ETV
attr interpolationmode  none
attr source  messageAge(rcvdPk)
attr title  "end-to-end delay, vector"
attr unit  s
vector 2  Base.nodeMaster[0].udpApp[0]  rcvdPkSeqNo:vector  ETV
attr interpolationmode  none
attr source  appPkSeqNo(rcvdPk)
attr title  "received packet sequence number, vector"
vector 26  Base.nodeMaster[1].networkLayer.arp  sentReply:vector  ETV
attr title  "ARP replies sent, vector"
0	32337	13.407873187823	1000
0	33609	14.406651648288	1000
0	34841	15.406045696765	1000
0	37191	16.406046821324	1000
0	37362	16.507192725719	1000
0	38743	17.407733875406	1000
0	38921	17.506294216954	1000
0	40239	18.406989157887	1000
0	40400	18.506940629894	1000
0	41764	19.406943522823	1000
0	41889	19.506616600546	1000
0	43214	20.406103767907	1000
0	43363	20.507813806646	1000
0	44568	21.407793547699	1000
0	44723	21.507221559524	1000
0	45947	22.406226795452	1000
0	46083	22.507392572993	1000
0	47370	23.406499563946	1000
0	47509	23.506746006968	1000
0	48819	24.406159926983	1000
0	49028	24.506420728349	1000
0	50135	25.407129429548	1000
0	50349	25.507566882496	1000
0	51538	26.406455210322	1000
0	51679	26.506195690605	1000
0	52793	27.407406239563	1000
0	52998	27.50622233685	1000
0	54235	28.40734386514	1000
0	54398	28.506481969136	1000
0	55659	29.407044809891	1000
0	55829	29.507548121537	1000
0	57083	30.407161572802	1000
0	57247	30.507481980746	1000
0	58470	31.407294144686	1000
0	58610	31.506508543572	1000
0	59817	32.407684554418	1000
0	59959	32.506763871051	1000
0	61276	33.406109263615	1000
0	61433	33.506681935449	1000
0	62507	34.40709752441	1000
0	62631	34.506549274851	1000
0	63865	35.40708077848	1000
0	64020	35.506606078781	1000
0	65292	36.40751634525	1000
0	65471	36.506430673252	1000
0	66749	37.406614409538	1000
0	66920	37.507554045304	1000
0	67989	38.406331040759	1000
0	68156	38.507371364679	1000
0	69424	39.406381107399	1000
0	69590	39.506638226463	1000
0	70805	40.406740455255	1000
0	70925	40.506796281309	1000
0	72241	41.407212090936	1000
0	72396	41.507610134031	1000
0	73694	42.407752201989	1000
0	73848	42.506420247487	1000
0	74974	43.406556879361	1000
0	75162	43.507123497398	1000
0	76435	44.407427549627	1000
0	76614	44.507293591347	1000
0	77886	45.406710622675	1000
0	78022	45.507848622471	1000
0	79228	46.40743098286	1000
0	79406	46.507188389828	1000
0	80711	47.406425683463	1000
0	80889	47.507248407646	1000
0	82179	48.40784477339	1000
0	82327	48.507891649663	1000
0	83521	49.407197810416	1000
0	83643	49.506126104832	1000
0	84801	50.407437843453	1000
0	84968	50.506750397384	1000
0	86146	51.406256232908	1000
0	86362	51.507099868926	1000
0	87615	52.407067442891	1000
0	87754	52.506792437795	1000
0	88893	53.406402545795	1000
0	89077	53.507284607795	1000
0	90241	54.406741113197	1000
0	90425	54.50756079241	1000
0	91677	55.407026065446	1000
0	91830	55.507351290574	1000
0	93043	56.406334562753	1000
0	93195	56.506335763746	1000
0	94366	57.407031151509	1000
0	94513	57.507805412191	1000
0	95740	58.407645479258	1000
0	95913	58.50690009286	1000
0	97063	59.406822406334	1000
0	97221	59.506048420737	1000
0	98378	60.407825842574	1000
0	98518	60.506717216134	1000
0	99728	61.407253380279	1000
0	99851	61.506637073072	1000
0	100975	62.407024913057	1000
0	101137	62.506614994947	1000
0	102387	63.407557104367	1000
0	102533	63.507110873012	1000
0	103670	64.407122456191	1000
0	103838	64.506752253934	1000
0	104997	65.406087063085	1000
0	105136	65.507914360399	1000
0	106332	66.407471724083	1000
0	106524	66.506591846724	1000
0	107589	67.406864401235	1000
0	107732	67.507128170462	1000
0	108813	68.407155429976	1000
0	108960	68.506997543968	1000
0	110093	69.407597721475	1000
0	110229	69.507371525236	1000
0	111506	70.406209135903	1000
0	111683	70.506089114168	1000
0	112944	71.407224990127	1000
0	113101	71.507348331378	1000
0	114340	72.406137898937	1000
0	114511	72.506987207933	1000
0	115713	73.406303277426	1000
0	115882	73.507078629207	1000
0	117131	74.40642443444	1000
0	117327	74.506682156681	1000
0	118506	75.407773236049	1000
0	118668	75.507774695266	1000
0	119978	76.406819037315	1000
0	120125	76.506783883018	1000
0	121349	77.406096476115	1000
0	121506	77.507437646576	1000
0	122635	78.407624839449	1000
0	122790	78.506850329396	1000
0	123959	79.406772597317	1000
0	124119	79.506177776767	1000
0	125383	80.406836508537	1000
0	125537	80.507389099546	1000
0	126793	81.407822658307	1000
0	126917	81.507372220408	1000
0	128190	82.406479537458	1000
0	128323	82.506538178552	1000
0	129543	83.406282970749	1000
0	129667	83.50725673455	1000
0	130835	84.407565637462	1000
0	130996	84.507122623718	1000
0	132151	85.406647710483	1000
0	132322	85.50606823645	1000
0	133585	86.407637664374	1000
0	133721	86.506560017982	1000
0	135026	87.40657833015	1000
0	135205	87.506234821679	1000
0	136361	88.406586776038	1000
0	136506	88.506456341096	1000
0	137736	89.406174723725	1000
0	137891	89.507830338427	1000
0	139164	90.40604886698	1000
0	139315	90.506268743187	1000
0	140570	91.40749133498	1000
0	140749	91.507570798623	1000
0	141920	92.407358721043	1000
0	142029	92.506085494955	1000
0	143193	93.406639753742	1000
0	143360	93.5069036769	1000
0	144529	94.406843499528	1000
0	144683	94.507811543043	1000
0	145914	95.406845051883	1000
0	146109	95.507610015023	1000
0	147410	96.406928795049	1000
0	147551	96.507755387661	1000
0	148731	97.406546939636	1000
0	148914	97.506616522827	1000
0	150025	98.407683581793	1000
0	150201	98.50741191997	1000
0	151417	99.407120126767	1000
0	151577	99.506323656596	1000
0	152770	100.406476181892	1000
0	152953	100.507540724932	1000
0	154190	101.406960436509	1000
0	154350	101.507213830974	1000
0	155508	102.407313310731	1000
0	155695	102.50734764615	1000
0	157016	103.406448331428	1000
0	157180	103.507913940899	1000
0	158371	104.407472532057	1000
0	158539	104.506909137075	1000
0	159846	105.406611812965	1000
0	159976	105.506270094784	1000
0	161161	106.40744007914	1000
0	161314	106.506860125398	1000
0	162511	107.407682180016	1000
0	162664	107.507896968596	1000
0	163943	108.407769650683	1000
0	164110	108.507299828452	1000
0	165266	109.406805939827	1000
0	165410	109.506909049792	1000
0	166678	110.407855954229	1000
0	166811	110.506773212986	1000
0	168088	111.407375604279	1000
0	168230	111.506606319988	1000
0	169466	112.40732104402	1000
0	169616	112.507291200027	1000
0	170816	113.407775084026	1000
0	170926	113.506410636562	1000
0	172126	114.406295192097	1000
0	172274	114.506422587893	1000
0	173468	115.407124798103	1000
0	173644	115.50683873473	1000
0	175014	116.406141072722	1000
0	175188	116.506938011936	1000
0	176409	117.407634674219	1000
0	176565	117.506649729027	1000
0	177808	118.40730896032	1000
0	177935	118.507596917561	1000
0	179097	119.406638662309	1000
0	179222	119.506247681548	1000
0	180307	120.407441801046	1000
0	180469	120.506275885783	1000
0	181701	121.406195176581	1000
0	181880	121.507068909095	1000
0	183059	122.4076504974	1000
0	183237	122.50721224409	1000
1	32337	13.407873187823	8.407873187823
1	33609	14.406651648288	9.384336397743
1	34841	15.406045696765	10.363663911816
1	37191	16.406046821324	11.361850266131
1	37362	16.507192725719	11.507192725719
1	38743	17.407733875406	12.355836810141
1	38921	17.506294216954	12.482875672923
1	40239	18.406989157887	13.346272519568
1	40400	18.506940629894	13.477535621755
1	41764	19.406943522823	14.332595617203
1	41889	19.506616600546	14.472272656452
1	43214	20.406103767907	15.322505846385
1	43363	20.507813806646	15.467958884905
1	44568	21.407793547699	16.308172143962
1	44723	21.507221559524	16.429564598639
1	45947	22.406226795452	17.278689178975
1	46083	22.507392572993	17.412679235947
1	47370	23.406499563946	10.983539978951
1	47509	23.506746006968	18.404859717
1	48819	24.406159926983	10.953601627064
1	49028	24.506420728349	19.403279703672
1	50135	25.407129429548	11.00198220384
1	50349	25.507566882496	20.362423293606
1	51538	26.406455210322	10.998757945891
1	51679	26.506195690605	21.34895587077
1	52793	27.407406239563	10.99755894834
1	52998	27.50622233685	10.955233813695
1	54235	28.40734386514	11.000617505809
1	54398	28.506481969136	10.989406237274
1	55659	29.407044809891	10.982271438982
1	55829	29.507548121537	11.000079198343
1	57083	30.407161572802	10.95040131051
1	57247	30.507481980746	10.991342408035
1	58470	31.407294144686	10.995194529447
1	58610	31.506508543572	10.986205176878
1	59817	32.407684554418	10.998322596366
1	59959	32.506763871051	10.984736364183
1	61276	33.406109263615	11.000965895676
1	61433	33.506681935449	10.988913085359
1	62507	34.40709752441	10.997628875292
1	62631	34.506549274851	10.995942712352
1	63865	35.40708077848	11.000904277272
1	64020	35.506606078781	10.986391005256
1	65292	36.40751634525	10.993101694346
1	65471	36.506430673252	10.994780717724
1	66749	37.406614409538	10.980049083221
1	66920	37.507554045304	10.98446919523
1	67989	38.406331040759	10.993448047225
1	68156	38.507371364679	11.00390747267
1	69424	39.406381107399	10.995498829316
1	69590	39.506638226463	11.00365262171
1	70805	40.406740455255	10.998769100083
1	70925	40.506796281309	10.995788788566
1	72241	41.407212090936	10.988660373649
1	72396	41.507610134031	10.98136856994
1	73694	42.407752201989	10.976582229361
1	73848	42.506420247487	10.970247154121
1	74974	43.406556879361	11.002918086664
1	75162	43.507123497398	10.987125192309
1	76435	44.407427549627	11.001702977516
1	76614	44.507293591347	11.00429614214
1	77886	45.406710622675	10.978318961006
1	78022	45.507848622471	10.980563001039
1	79228	46.40743098286	10.992426450564
1	79406	46.507188389828	10.989785217648
1	80711	47.406425683463	10.982930825073
1	80889	47.507248407646	11.004482644659
1	82179	48.40784477339	11.002786651284
1	82327	48.507891649663	10.970330962098
1	83521	49.407197810416	11.004488233349
1	83643	49.506126104832	10.999105517609
1	84801	50.407437843453	10.997653300271
1	84968	50.506750397384	10.970613989218
1	86146	51.406256232908	10.987010061147
1	86362	51.507099868926	10.990262656844
1	87615	52.407067442891	10.985383371227
1	87754	52.506792437795	10.991243515903
1	88893	53.406402545795	10.986573648765
1	89077	53.507284607795	11.000688403224
1	90241	54.406741113197	10.991682108987
1	90425	54.50756079241	10.99162324319
1	91677	55.407026065446	10.984712945969
1	91830	55.507351290574	10.995491625508
1	93043	56.406334562753	10.992279549669
1	93195	56.506335763746	10.992483060491
1	94366	57.407031151509	10.997103235725
1	94513	57.507805412191	11.001497636351
1	95740	58.407645479258	10.998356777869
1	95913	58.50690009286	10.995294084739
1	97063	59.406822406334	10.993269050707
1	97221	59.506048420737	10.991118849111
1	98378	60.407825842574	10.979823977691
1	98518	60.506717216134	10.95509051942
1	99728	61.407253380279	11.003326956066
1	99851	61.506637073072	11.003450502935
1	100975	62.407024913057	10.995825430847
1	101137	62.506614994947	10.997348943416
1	102387	63.407557104367	10.998011893333
1	102533	63.507110873012	10.992556331449
1	103670	64.407122456191	10.975613338287
1	103838	64.506752253934	10.980361762554
1	104997	65.406087063085	10.995315570484
1	105136	65.507914360399	10.992728884193
1	106332	66.407471724083	10.995209380348
1	106524	66.506591846724	10.969239595076
1	107589	67.406864401235	10.985220124205
1	107732	67.507128170462	11.000750685135
1	108813	68.407155429976	10.994062387564
1	108960	68.506997543968	10.998848781104
1	110093	69.407597721475	11.002506415092
1	110229	69.507371525236	10.973100970262
1	111506	70.406209135903	10.96713748892
1	111683	70.506089114168	10.988535478219
1	112944	71.407224990127	11.002327918212
1	113101	71.507348331378	10.995434220713
1	114340	72.406137898937	10.98852505125
1	114511	72.506987207933	10.993429039516
1	115713	73.406303277426	10.996643411552
1	115882	73.507078629207	11.001700177927
1	117131	74.40642443444	10.987622467188
1	117327	74.506682156681	10.990893705501
1	118506	75.407773236049	10.998028790229
1	118668	75.507774695266	11.001874428033
1	119978	76.406819037315	10.993079267391
1	120125	76.506783883018	10.997692128807
1	121349	77.406096476115	10.9785956017
1	121506	77.507437646576	11.000575470868
1	122635	78.407624839449	11.001182830439
1	122790	78.506850329396	10.995828558713
1	123959	79.406772597317	11.000857728099
1	124119	79.506177776767	10.979400167225
1	125383	80.406836508537	10.988313284265
1	125537	80.507389099546	10.989189763087
1	126793	81.407822658307	10.99892319237
1	126917	81.507372220408	10.993304246519
1	128190	82.406479537458	10.992996978079
1	128323	82.506538178552	11.000777482533
1	129543	83.406282970749	10.995245908673
1	129667	83.50725673455	10.979013680175
1	130835	84.407565637462	11.004482491443
1	130996	84.507122623718	10.990669417568
1	132151	85.406647710483	10.993976957636
1	132322	85.50606823645	10.997617408496
1	133585	86.407637664374	11.000770709831
1	133721	86.506560017982	10.99831138212
1	135026	87.40657833015	11.001144661
1	135205	87.506234821679	10.991243002407
1	136361	88.406586776038	11.003122887836
1	136506	88.506456341096	10.996769489817
1	137736	89.406174723725	11.002276859069
1	137891	89.507830338427	10.997543556499
1	139164	90.40604886698	11.001534216013
1	139315	90.506268743187	11.002396053587
1	140570	91.40749133498	10.994979470542
1	140749	91.507570798623	10.967435981205
1	141920	92.407358721043	10.994810467802
1	142029	92.506085494955	10.990767578999
1	143193	93.406639753742	10.994323279396
1	143360	93.5069036769	10.977937938754
1	144529	94.406843499528	10.988205846661
1	144683	94.507811543043	10.997901277881
1	145914	95.406845051883	11.002641006468
1	146109	95.507610015023	10.994412997419
1	147410	96.406928795049	10.99702015685
1	147551	96.507755387661	11.005426983628
1	148731	97.406546939636	10.998306571679
1	148914	97.506616522827	10.984943030333
1	150025	98.407683581793	10.998069035386
1	150201	98.50741191997	10.979587788816
1	151417	99.407120126767	10.970193315501
1	151577	99.506323656596	10.974694915557
1	152770	100.406476181892	11.003535014439
1	152953	100.507540724932	11.003044733646
1	154190	101.406960436509	10.992072796473
1	154350	101.507213830974	10.99687098687
1	155508	102.407313310731	11.002279667494
1	155695	102.50734764615	10.989691173097
1	157016	103.406448331428	11.000088474104
1	157180	103.507913940899	11.005911043211
1	158371	104.407472532057	10.995697009556
1	158539	104.506909137075	11.002035036632
1	159846	105.406611812965	10.99126433933
1	159976	105.506270094784	10.995157667619
1	161161	106.40744007914	11.00032224097
1	161314	106.506860125398	11.001846681145
1	162511	107.407682180016	10.99488096594
1	162664	107.507896968596	11.00323548153
1	163943	108.407769650683	10.99398705137
1	164110	108.507299828452	11.000889022638
1	165266	109.406805939827	10.990479232173
1	165410	109.506909049792	10.984680457055
1	166678	110.407855954229	11.003364305569
1	166811	110.506773212986	10.9974745242
1	168088	111.407375604279	10.997373952158
1	168230	111.506606319988	10.989230242176
1	169466	112.40732104402	10.996063172721
1	169616	112.507291200027	11.002645812229
1	170816	113.407775084026	10.990799337276
1	170926	113.506410636562	10.963643312179
1	172126	114.406295192097	11.002051681478
1	172274	114.506422587893	10.961998201632
1	173468	115.407124798103	10.99103683469
1	173644	115.50683873473	10.997560414296
1	175014	116.406141072722	11.003107001171
1	175188	116.506938011936	11.004094266733
1	176409	117.407634674219	10.995606597653
1	176565	117.506649729027	11.002444588144
1	177808	118.40730896032	10.994248624652
1	177935	118.507596917561	10.98757828885
1	179097	119.406638662309	10.993694185733
1	179222	119.506247681548	10.986733838925
1	180307	120.407441801046	11.002363407387
1	180469	120.506275885783	10.998878663261
1	181701	121.406195176581	11.002106365782
1	181880	121.507068909095	11.004010940096
1	183059	122.4076504974	10.999160977914
1	183237	122.50721224409	11.00095917376
2	32337	13.407873187823	0
2	33609	14.406651648288	1
2	34841	15.406045696765	2
2	37191	16.406046821324	3
2	37362	16.507192725719	0
2	38743	17.407733875406	4
2	38921	17.506294216954	1
2	40239	18.406989157887	5
2	40400	18.506940629894	2
2	41764	19.406943522823	6
2	41889	19.506616600546	3
2	43214	20.406103767907	7
2	43363	20.507813806646	4
2	44568	21.407793547699	8
2	44723	21.507221559524	5
2	45947	22.406226795452	9
2	46083	22.507392572993	6
2	47370	23.406499563946	616
2	47509	23.506746006968	7
2	48819	24.406159926983	689
2	49028	24.506420728349	8
2	50135	25.407129429548	762
2	50349	25.507566882496	9
2	51538	26.406455210322	836
2	51679	26.506195690605	10
2	52793	27.407406239563	936
2	52998	27.50622233685	952
2	54235	28.40734386514	1036
2	54398	28.506481969136	1043
2	55659	29.407044809891	1116
2	55829	29.507548121537	1129
2	57083	30.407161572802	1203
2	57247	30.507481980746	1215
2	58470	31.407294144686	1284
2	58610	31.506508543572	1300
2	59817	32.407684554418	1374
2	59959	32.506763871051	1383
2	61276	33.406109263615	1458
2	61433	33.506681935449	1457
2	62507	34.40709752441	1548
2	62631	34.506549274851	1540
2	63865	35.40708077848	1652
2	64020	35.506606078781	1631
2	65292	36.40751634525	1733
2	65471	36.506430673252	1709
2	66749	37.406614409538	1814
2	66920	37.507554045304	1792
2	67989	38.406331040759	1882
2	68156	38.507371364679	1872
2	69424	39.406381107399	1978
2	69590	39.506638226463	1950
2	70805	40.406740455255	2057
2	70925	40.506796281309	2027
2	72241	41.407212090936	2140
2	72396	41.507610134031	2122
2	73694	42.407752201989	2232
2	73848	42.506420247487	2197
2	74974	43.406556879361	2304
2	75162	43.507123497398	2292
2	76435	44.407427549627	2385
2	76614	44.507293591347	2381
2	77886	45.406710622675	2469
2	78022	45.507848622471	2440
2	79228	46.40743098286	2550
2	79406	46.507188389828	2528
2	80711	47.406425683463	2661
2	80889	47.507248407646	2606
2	82179	48.40784477339	2751
2	82327	48.507891649663	2690
2	83521	49.407197810416	2823
2	83643	49.506126104832	2761
2	84801	50.407437843453	2909
2	84968	50.506750397384	2859
2	86146	51.406256232908	2999
2	86362	51.507099868926	2929
2	87615	52.407067442891	3098
2	87754	52.506792437795	3024
2	88893	53.406402545795	3193
2	89077	53.507284607795	3097
2	90241	54.406741113197	3274
2	90425	54.50756079241	3173
2	91677	55.407026065446	3373
2	91830	55.507351290574	3259
2	93043	56.406334562753	3463
2	93195	56.506335763746	3352
2	94366	57.407031151509	3533
2	94513	57.507805412191	3436
2	95740	58.407645479258	3620
2	95913	58.50690009286	3532
2	97063	59.406822406334	3718
2	97221	59.506048420737	3614
2	98378	60.407825842574	3794
2	98518	60.506717216134	3692
2	99728	61.407253380279	3876
2	99851	61.506637073072	3766
2	100975	62.407024913057	3970
2	101137	62.506614994947	3839
2	102387	63.407557104367	4064
2	102533	63.507110873012	3914
2	103670	64.407122456191	4137
2	103838	64.506752253934	4010
2	104997	65.406087063085	4216
2	105136	65.507914360399	4107
2	106332	66.407471724083	4300
2	106524	66.506591846724	4197
2	107589	67.406864401235	4371
2	107732	67.507128170462	4282
2	108813	68.407155429976	4461
2	108960	68.506997543968	4352
2	110093	69.407597721475	4552
2	110229	69.507371525236	4432
2	111506	70.406209135903	4651
2	111683	70.506089114168	4506
2	112944	71.407224990127	4730
2	113101	71.507348331378	4586
2	114340	72.406137898937	4808
2	114511	72.506987207933	4678
2	115713	73.406303277426	4883
2	115882	73.507078629207	4757
2	117131	74.40642443444	4959
2	117327	74.506682156681	4853
2	118506	75.407773236049	5028
2	118668	75.507774695266	4937
2	119978	76.406819037315	5106
2	120125	76.506783883018	5016
2	121349	77.406096476115	5179
2	121506	77.507437646576	5104
2	122635	78.407624839449	5253
2	122790	78.506850329396	5180
2	123959	79.406772597317	5328
2	124119	79.506177776767	5249
2	125383	80.406836508537	5412
2	125537	80.507389099546	5324
2	126793	81.407822658307	5509
2	126917	81.507372220408	5405
2	128190	82.406479537458	5613
2	128323	82.506538178552	5496
2	129543	83.406282970749	5695
2	129667	83.50725673455	5578
2	130835	84.407565637462	5778
2	130996	84.507122623718	5668
2	132151	85.406647710483	5870
2	132322	85.50606823645	5759
2	133585	86.407637664374	5945
2	133721	86.506560017982	5844
2	135026	87.40657833015	6052
2	135205	87.506234821679	5936
2	136361	88.406586776038	6136
2	136506	88.506456341096	6034
2	137736	89.406174723725	6206
2	137891	89.507830338427	6105
2	139164	90.40604886698	6288
2	139315	90.506268743187	6182
2	140570	91.40749133498	6376
2	140749	91.507570798623	6262
2	141920	92.407358721043	6464
2	142029	92.506085494955	6338
2	143193	93.406639753742	6554
2	143360	93.5069036769	6416
2	144529	94.406843499528	6642
2	144683	94.507811543043	6496
2	145914	95.406845051883	6715
2	146109	95.507610015023	6575
2	147410	96.406928795049	6793
2	147551	96.507755387661	6649
2	148731	97.406546939636	6889
2	148914	97.506616522827	6733
2	150025	98.407683581793	6976
2	150201	98.50741191997	6815
2	151417	99.407120126767	7057
2	151577	99.506323656596	6901
2	152770	100.406476181892	7140
2	152953	100.507540724932	6988
2	154190	101.406960436509	7223
2	154350	101.507213830974	7084
2	155508	102.407313310731	7322
2	155695	102.50734764615	7167
2	157016	103.406448331428	7413
2	157180	103.507913940899	7239
2	158371	104.407472532057	7488
2	158539	104.506909137075	7314
2	159846	105.406611812965	7575
2	159976	105.506270094784	7400
2	161161	106.40744007914	7668
2	161314	106.506860125398	7488
2	162511	107.407682180016	7749
2	162664	107.507896968596	7584
2	163943	108.407769650683	7825
2	164110	108.507299828452	7665
2	165266	109.406805939827	7899
2	165410	109.506909049792	7758
2	166678	110.407855954229	7988
2	166811	110.506773212986	7844
2	168088	111.407375604279	8063
2	168230	111.506606319988	7938
2	169466	112.40732104402	8158
2	169616	112.507291200027	8023
2	170816	113.407775084026	8233
2	170926	113.506410636562	8114
2	172126	114.406295192097	8340
2	172274	114.506422587893	8209
2	173468	115.407124798103	8409
2	173644	115.50683873473	8293
2	175014	116.406141072722	8490
2	175188	116.506938011936	8400
2	176409	117.407634674219	8572
2	176565	117.506649729027	8477
2	177808	118.40730896032	8664
2	177935	118.507596917561	8554
2	179097	119.406638662309	8755
2	179222	119.506247681548	8644
2	180307	120.407441801046	8816
2	180469	120.506275885783	8731
2	181701	121.406195176581	8911
2	181880	121.507068909095	8812
2	183059	122.4076504974	8992
2	183237	122.50721224409	8917
4	32336	13.407873187823	1008
4	33608	14.406651648288	1008
4	34840	15.406045696765	1008
4	37190	16.406046821324	1008
4	37361	16.507192725719	1008
4	38742	17.407733875406	1008
4	38920	17.506294216954	1008
4	40238	18.406989157887	1008
4	40399	18.506940629894	1008
4	41763	19.406943522823	1008
4	41888	19.506616600546	1008
4	43213	20.406103767907	1008
4	43362	20.507813806646	1008
4	44567	21.407793547699	1008
4	44722	21.507221559524	1008
4	45946	22.406226795452	1008
4	46082	22.507392572993	1008
4	47369	23.406499563946	1008
4	47508	23.506746006968	1008
4	48818	24.406159926983	1008
4	49027	24.506420728349	1008
4	50134	25.407129429548	1008
4	50348	25.507566882496	1008
4	51537	26.406455210322	1008
4	51678	26.506195690605	1008
4	52792	27.407406239563	1008
4	52997	27.50622233685	1008
4	54234	28.40734386514	1008
4	54397	28.506481969136	1008
4	55658	29.407044809891	1008
4	55828	29.507548121537	1008
4	57082	30.407161572802	1008
4	57246	30.507481980746	1008
4	58469	31.407294144686	1008
4	58609	31.506508543572	1008
4	59816	32.407684554418	1008
4	59958	32.506763871051	1008
4	61275	33.406109263615	1008
4	61432	33.506681935449	1008
4	62506	34.40709752441	1008
4	62630	34.506549274851	1008
4	63864	35.40708077848	1008
4	64019	35.506606078781	1008
4	65291	36.40751634525	1008
4	65470	36.506430673252	1008
4	66748	37.406614409538	1008
4	66919	37.507554045304	1008
4	67988	38.406331040759	1008
4	68155	38.507371364679	1008
4	69423	39.406381107399	1008
4	69589	39.506638226463	1008
4	70804	40.406740455255	1008
4	70924	40.506796281309	1008
4	72240	41.407212090936	1008
4	72395	41.507610134031	1008
4	73693	42.407752201989	1008
4	73847	42.506420247487	1008
4	74973	43.406556879361	1008
4	75161	43.507123497398	1008
4	76434	44.407427549627	1008
4	76613	44.507293591347	1008
4	77885	45.406710622675	1008
4	78021	45.507848622471	1008
4	79227	46.40743098286	1008
4	79405	46.507188389828	1008
4	80710	47.406425683463	1008
4	80888	47.507248407646	1008
4	82178	48.40784477339	1008
4	82326	48.507891649663	1008
4	83520	49.407197810416	1008
4	83642	49.506126104832	1008
4	84800	50.407437843453	1008
4	84967	50.506750397384	1008
4	86145	51.406256232908	1008
4	86361	51.507099868926	1008
4	87614	52.407067442891	1008
4	87753	52.506792437795	1008
4	88892	53.406402545795	1008
4	89076	53.507284607795	1008
4	90240	54.406741113197	1008
4	90424	54.50756079241	1008
4	91676	55.407026065446	1008
4	91829	55.507351290574	1008
4	93042	56.406334562753	1008
4	93194	56.506335763746	1008
4	94365	57.407031151509	1008
4	94512	57.507805412191	1008
4	95739	58.407645479258	1008
4	95912	58.50690009286	1008
4	97062	59.406822406334	1008
4	97220	59.506048420737	1008
4	98377	60.407825842574	1008
4	98517	60.506717216134	1008
4	99727	61.407253380279	1008
4	99850	61.506637073072	1008
4	100974	62.407024913057	1008
4	101136	62.506614994947	1008
4	102386	63.407557104367	1008
4	102532	63.507110873012	1008
4	103669	64.407122456191	1008
4	103837	64.506752253934	1008
4	104996	65.406087063085	1008
4	105135	65.507914360399	1008
4	106331	66.407471724083	1008
4	106523	66.506591846724	1008
4	107588	67.406864401235	1008
4	107731	67.507128170462	1008
4	108812	68.407155429976	1008
4	108959	68.506997543968	1008
4	110092	69.407597721475	1008
4	110228	69.507371525236	1008
4	111505	70.406209135903	1008
4	111682	70.506089114168	1008
4	112943	71.407224990127	1008
4	113100	71.507348331378	1008
4	114339	72.406137898937	1008
4	114510	72.506987207933	1008
4	115712	73.406303277426	1008
4	115881	73.507078629207	1008
4	117130	74.40642443444	1008
4	117326	74.506682156681	1008
4	118505	75.407773236049	1008
4	118667	75.507774695266	1008
4	119977	76.406819037315	1008
4	120124	76.506783883018	1008
4	121348	77.406096476115	1008
4	121505	77.507437646576	1008
4	122634	78.407624839449	1008
4	122789	78.506850329396	1008
4	123958	79.406772597317	1008
4	124118	79.506177776767	1008
4	125382	80.406836508537	1008
4	125536	80.507389099546	1008
4	126792	81.407822658307	1008
4	126916	81.507372220408	1008
4	128189	82.406479537458	1008
4	128322	82.506538178552	1008
4	129542	83.406282970749	1008
4	129666	83.50725673455	1008
4	130834	84.407565637462	1008
4	130995	84.507122623718	1008
4	132150	85.406647710483	1008
4	132321	85.50606823645	1008
4	133584	86.407637664374	1008
4	133720	86.506560017982	1008
4	135025	87.40657833015	1008
4	135204	87.506234821679	1008
4	136360	88.406586776038	1008
4	136505	88.506456341096	1008
4	137735	89.406174723725	1008
4	137890	89.507830338427	1008
4	139163	90.40604886698	1008
4	139314	90.506268743187	1008
4	140569	91.40749133498	1008
4	140748	91.507570798623	1008
4	141919	92.407358721043	1008
4	142028	92.506085494955	1008
4	143192	93.406639753742	1008
4	143359	93.5069036769	1008
4	144528	94.406843499528	1008
4	144682	94.507811543043	1008
4	145913	95.406845051883	1008
4	146108	95.507610015023	1008
4	147409	96.406928795049	1008
4	147550	96.507755387661	1008
4	148730	97.406546939636	1008
4	148913	97.506616522827	1008
4	150024	98.407683581793	1008
4	150200	98.50741191997	1008
4	151416	99.407120126767	1008
4	151576	99.506323656596	1008
4	152769	100.406476181892	1008
4	152952	100.507540724932	1008
4	154189	101.406960436509	1008
4	154349	101.507213830974	1008
4	155507	102.407313310731	1008
4	155694	102.50734764615	1008
4	157015	103.406448331428	1008
4	157179	103.507913940899	1008
4	158370	104.407472532057	1008
4	158538	104.506909137075	1008
4	159845	105.406611812965	1008
4	159975	105.506270094784	1008
4	161160	106.40744007914	1008
4	161313	106.506860125398	1008
4	162510	107.407682180016	1008
4	162663	107.507896968596	1008
4	163942	108.407769650683	1008
4	164109	108.507299828452	1008
4	165265	109.406805939827	1008
4	165409	109.506909049792	1008
4	166677	110.407855954229	1008
4	166810	110.506773212986	1008
4	168087	111.407375604279	1008
4	168229	111.506606319988	1008
4	169465	112.40732104402	1008
4	169615	112.507291200027	1008
4	170815	113.407775084026	1008
4	170925	113.506410636562	1008
4	172125	114.406295192097	1008
4	172273	114.506422587893	1008
4	173467	115.407124798103	1008
4	173643	115.50683873473	1008
4	175013	116.406141072722	1008
4	175187	116.506938011936	1008
4	176408	117.407634674219	1008
4	176564	117.506649729027	1008
4	177807	118.40730896032	1008
4	177934	118.507596917561	1008
4	179096	119.406638662309	1008
4	179221	119.506247681548	1008
4	180306	120.407441801046	1008
4	180468	120.506275885783	1008
4	181700	121.406195176581	1008
4	181879	121.507068909095	1008
4	183058	122.4076504974	1008
4	183236	122.50721224409	1008
5	32336	13.407873187823	1
5	33608	14.406651648288	2
5	34840	15.406045696765	3
5	37190	16.406046821324	4
5	37361	16.507192725719	5
5	38742	17.407733875406	6
5	38920	17.506294216954	7
5	40238	18.406989157887	8
5	40399	18.506940629894	9
5	41763	19.406943522823	10
5	41888	19.506616600546	11
5	43213	20.406103767907	12
5	43362	20.507813806646	13
5	44567	21.407793547699	14
5	44722	21.507221559524	15
5	45946	22.406226795452	16
5	46082	22.507392572993	17
5	47369	23.406499563946	18
5	47508	23.506746006968	19
5	48818	24.406159926983	20
5	49027	24.506420728349	21
5	50134	25.407129429548	22
5	50348	25.507566882496	23
5	51537	26.406455210322	24
5	51678	26.506195690605	25
5	52792	27.407406239563	26
5	52997	27.50622233685	27
5	54234	28.40734386514	28
5	54397	28.506481969136	29
5	55658	29.407044809891	30
5	55828	29.507548121537	31
5	57082	30.407161572802	32
5	57246	30.507481980746	33
5	58469	31.407294144686	34
5	58609	31.506508543572	35
5	59816	32.407684554418	36
5	59958	32.506763871051	37
5	61275	33.406109263615	38
5	61432	33.506681935449	39
5	62506	34.40709752441	40
5	62630	34.506549274851	41
5	63864	35.40708077848	42
5	64019	35.506606078781	43
5	65291	36.40751634525	44
5	65470	36.506430673252	45
5	66748	37.406614409538	46
5	66919	37.507554045304	47
5	67988	38.406331040759	48
5	68155	38.507371364679	49
5	69423	39.406381107399	50
5	69589	39.506638226463	51
5	70804	40.406740455255	52
5	70924	40.506796281309	53
5	72240	41.407212090936	54
5	72395	41.507610134031	55
5	73693	42.407752201989	56
5	73847	42.506420247487	57
5	74973	43.406556879361	58
5	75161	43.507123497398	59
5	76434	44.407427549627	60
5	76613	44.507293591347	61
5	77885	45.406710622675	62
5	78021	45.507848622471	63
5	79227	46.40743098286	64
5	79405	46.507188389828	65
5	80710	47.406425683463	66
5	80888	47.507248407646	67
5	82178	48.40784477339	68
5	82326	48.507891649663	69
5	83520	49.407197810416	70
5	83642	49.506126104832	71
5	84800	50.407437843453	72
5	84967	50.506750397384	73
5	86145	51.406256232908	74
5	86361	51.507099868926	75
5	87614	52.407067442891	76
5	87753	52.506792437795	77
5	88892	53.406402545795	78
5	89076	53.507284607795	79
5	90240	54.406741113197	80
5	90424	54.50756079241	81
5	91676	55.407026065446	82
5	91829	55.507351290574	83
5	93042	56.406334562753	84
5	93194	56.506335763746	85
5	94365	57.407031151509	86
5	94512	57.507805412191	87
5	95739	58.407645479258	88
5	95912	58.50690009286	89
5	97062	59.406822406334	90
5	97220	59.506048420737	91
5	98377	60.407825842574	92
5	98517	60.506717216134	93
5	99727	61.407253380279	94
5	99850	61.506637073072	95
5	100974	62.407024913057	96
5	101136	62.506614994947	97
5	102386	63.407557104367	98
5	102532	63.507110873012	99
5	103669	64.407122456191	100
5	103837	64.506752253934	101
5	104996	65.406087063085	102
5	105135	65.507914360399	103
5	106331	66.407471724083	104
5	106523	66.506591846724	105
5	107588	67.406864401235	106
5	107731	67.507128170462	107
5	108812	68.407155429976	108
5	108959	68.506997543968	109
5	110092	69.407597721475	110
5	110228	69.507371525236	111
5	111505	70.406209135903	112
5	111682	70.506089114168	113
5	112943	71.407224990127	114
5	113100	71.507348331378	115
5	114339	72.406137898937	116
5	114510	72.506987207933	117
5	115712	73.406303277426	118
5	115881	73.507078629207	119
5	117130	74.40642443444	120
5	117326	74.506682156681	121
5	118505	75.407773236049	122
5	118667	75.507774695266	123
5	119977	76.406819037315	124
5	120124	76.506783883018	125
5	121348	77.406096476115	126
5	121505	77.507437646576	127
5	122634	78.407624839449	128
5	122789	78.506850329396	129
5	123958	79.406772597317	130
5	124118	79.506177776767	131
5	125382	80.406836508537	132
5	125536	80.507389099546	133
5	126792	81.407822658307	134
5	126916	81.507372220408	135
5	128189	82.406479537458	136
5	128322	82.506538178552	137
5	129542	83.406282970749	138
5	129666	83.50725673455	139
5	130834	84.407565637462	140
5	130995	84.507122623718	141
5	132150	85.406647710483	142
5	132321	85.50606823645	143
5	133584	86.407637664374	144
5	133720	86.506560017982	145
5	135025	87.40657833015	146
5	135204	87.506234821679	147
5	136360	88.406586776038	148
5	136505	88.506456341096	149
5	137735	89.406174723725	150
5	137890	89.507830338427	151
5	139163	90.40604886698	152
5	139314	90.506268743187	153
5	140569	91.40749133498	154
5	140748	91.507570798623	155
5	141919	92.407358721043	156
5	142028	92.506085494955	157
5	143192	93.406639753742	158
5	143359	93.5069036769	159
5	144528	94.406843499528	160
5	144682	94.507811543043	161
5	145913	95.406845051883	162
5	146108	95.507610015023	163
5	147409	96.406928795049	164
5	147550	96.507755387661	165
5	148730	97.406546939636	166
5	148913	97.506616522827	167
5	150024	98.407683581793	168
5	150200	98.50741191997	169
5	151416	99.407120126767	170
5	151576	99.506323656596	171
5	152769	100.406476181892	172
5	152952	100.507540724932	173
5	154189	101.406960436509	174
5	154349	101.507213830974	175
5	155507	102.407313310731	176
5	155694	102.50734764615	177
5	157015	103.406448331428	178
5	157179	103.507913940899	179
5	158370	104.407472532057	180
5	158538	104.506909137075	181
5	159845	105.406611812965	182
5	159975	105.506270094784	183
5	161160	106.40744007914	184
5	161313	106.506860125398	185
5	162510	107.407682180016	186
5	162663	107.507896968596	187
5	163942	108.407769650683	188
5	164109	108.507299828452	189
5	165265	109.406805939827	190
5	165409	109.506909049792	191
5	166677	110.407855954229	192
5	166810	110.506773212986	193
5	168087	111.407375604279	194
5	168229	111.506606319988	195
5	169465	112.40732104402	196
5	169615	112.507291200027	197
5	170815	113.407775084026	198
5	170925	113.506410636562	199
5	172125	114.406295192097	200
5	172273	114.506422587893	201
5	173467	115.407124798103	202
5	173643	115.50683873473	203
5	175013	116.406141072722	204
5	175187	116.506938011936	205
5	176408	117.407634674219	206
5	176564	117.506649729027	207
5	177807	118.40730896032	208
5	177934	118.507596917561	209
5	179096	119.406638662309	210
5	179221	119.506247681548	211
5	180306	120.407441801046	212
5	180468	120.506275885783	213
5	181700	121.406195176581	214
5	181879	121.507068909095	215
5	183058	122.4076504974	216
5	183236	122.50721224409	217
8	21461	5.40308836398	1
8	22793	6.40308836398	1
8	22944	6.503658366539	1
8	24060	7.40308836398	1
8	24270	7.503658366539	1
8	24418	7.602468723676	1
8	25525	8.503658366539	1
8	25638	8.602468723676	1
8	25900	8.803865124539	1
8	26911	9.602468723676	1
8	27227	9.803865124539	1
8	28446	10.803865124539	1
13	0	0	0
13	28	0.1	2
13	42	0.100407195685	1
13	49	0.10375	2
13	63	0.105556805901	1
13	70	0.1075	2
13	84	0.108590783924	1
13	92	0.11125	2
13	117	0.116837161677	1
13	125	0.11875	2
13	171	0.134566229487	3
13	178	0.134626229487	1
13	187	0.1375	2
13	201	0.138469071337	1
13	208	0.14125	2
13	222	0.14209835641	1
13	230	0.145	2
13	244	0.1456611726	1
13	252	0.14875	2
13	277	0.15317954457	1
13	285	0.15625	2
13	331	0.171539550017	3
13	338	0.171599550017	1
13	347	0.175	2
13	361	0.175443882975	1
13	368	0.17875	2
13	382	0.180120534324	1
13	390	0.1825	2
13	404	0.183721299851	1
13	412	0.18625	2
13	437	0.190285074052	1
13	445	0.19375	2
13	491	0.20931185252	3
13	498	0.20937185252	1
13	507	0.2125	2
13	521	0.213469871622	1
13	528	0.21625	2
13	542	0.216810467925	1
13	550	0.22	2
13	564	0.221246550027	1
13	572	0.22375	2
13	597	0.228724792719	1
13	605	0.23125	2
13	651	0.247784175104	3
13	658	0.247844175104	1
13	667	0.25	2
13	681	0.251052308201	1
13	688	0.25375	2
13	702	0.255090840523	1
13	709	0.2575	2
13	723	0.257812504174	1
13	732	0.26125	2
13	757	0.265994968971	1
13	765	0.26875	2
13	811	0.284712958971	3
13	818	0.284772958971	1
13	827	0.2875	2
13	841	0.288660411118	1
13	848	0.29125	2
13	862	0.291655991525	1
13	870	0.295	2
13	884	0.296409705965	1
13	892	0.29875	2
13	917	0.304032670184	1
13	924	0.30625	2
13	971	0.321734683903	3
13	978	0.321794683903	1
13	987	0.325	2
13	1001	0.326661370452	1
13	1008	0.32875	2
13	1022	0.3298343055	1
13	1030	0.3325	2
13	1044	0.333486860858	1
13	1051	0.33625	2
13	1077	0.340823868968	1
13	1085	0.34375	2
13	1131	0.360337302796	3
13	1138	0.360397302796	1
13	1147	0.3625	2
13	1161	0.362892012952	1
13	1168	0.36625	2
13	1182	0.36645950204	1
13	1189	0.37	2
13	1204	0.371878227546	1
13	1212	0.37375	2
13	1237	0.378507503199	1
13	1244	0.38125	2
13	1291	0.396806909425	3
13	1298	0.396866909425	1
13	1307	0.4	2
13	1321	0.400182578976	1
13	1328	0.40375	2
13	1342	0.404349920819	1
13	1350	0.4075	2
13	1364	0.408362896153	1
13	1372	0.41125	2
13	1397	0.415278029262	1
13	1405	0.41875	2
13	1451	0.433930995478	3
13	1458	0.433990995478	1
13	1467	0.4375	2
13	1481	0.437900904977	1
13	1488	0.44125	2
13	1502	0.441548591729	1
13	1510	0.445	2
13	1524	0.445986960097	1
13	1532	0.44875	2
13	1557	0.453679064235	1
13	1565	0.45625	2
13	1611	0.472310809619	3
13	1618	0.472370809619	1
13	1627	0.475	2
13	1641	0.475483939288	1
13	1648	0.47875	2
13	1662	0.47922610772	1
13	1670	0.4825	2
13	1684	0.482760689941	1
13	1692	0.48625	2
13	1717	0.491499212738	1
13	1725	0.49375	2
13	1771	0.509163074137	3
13	1778	0.509223074137	1
13	1787	0.5125	2
13	1801	0.513642619414	1
13	1808	0.51625	2
13	1822	0.516966091067	1
13	1830	0.52	2
13	1844	0.520374835497	1
13	1852	0.52375	2
13	1877	0.528437268317	1
13	1885	0.53125	2
13	1931	0.546939008817	3
13	1938	0.546999008817	1
13	1947	0.55	2
13	1961	0.550438435333	1
13	1968	0.55375	2
13	1982	0.554688929749	1
13	1990	0.5575	2
13	2004	0.558760929394	1
13	2012	0.56125	2
13	2037	0.566286915873	1
13	2044	0.56875	2
13	2091	0.584655755935	3
13	2098	0.584715755935	1
13	2107	0.5875	2
13	2121	0.58904721005	1
13	2128	0.59125	2
13	2142	0.592257485626	1
13	2150	0.595	2
13	2164	0.596303407649	1
13	2171	0.59875	2
13	2197	0.603285590502	1
13	2204	0.60625	2
13	2251	0.622399430676	3
13	2258	0.622459430676	1
13	2267	0.625	2
13	2281	0.626548237006	1
13	2288	0.62875	2
13	2302	0.630668014276	1
13	2310	0.6325	2
13	2324	0.633647674625	1
13	2331	0.63625	2
13	2356	0.640284200781	1
13	2365	0.64375	2
13	2411	0.659054309881	3
13	2418	0.659114309881	1
13	2427	0.6625	2
13	2441	0.662838725745	1
13	2448	0.66625	2
13	2462	0.667624077426	1
13	2470	0.67	2
13	2484	0.671658193719	1
13	2492	0.67375	2
13	2517	0.679368700061	1
13	2524	0.68125	2
13	2571	0.697205361025	3
13	2578	0.697265361025	1
13	2587	0.7	2
13	2601	0.700997682464	1
13	2608	0.70375	2
13	2622	0.704217547882	1
13	2630	0.7075	2
13	2644	0.709228016893	1
13	2652	0.71125	2
13	2677	0.716922541079	1
13	2684	0.71875	2
13	2731	0.734390525606	3
13	2738	0.734450525606	1
13	2747	0.7375	2
13	2761	0.738151349559	1
13	2768	0.74125	2
13	2782	0.742373562021	1
13	2790	0.745	2
13	2804	0.745545291478	1
13	2812	0.74875	2
13	2837	0.753361815465	1
13	2845	0.75625	2
13	2891	0.772767203659	3
13	2898	0.772827203659	1
13	2907	0.775	2
13	2921	0.775879067899	1
13	2928	0.77875	2
13	2942	0.779473308107	1
13	2949	0.7825	2
13	2964	0.78401621526	1
13	2972	0.78625	2
13	2997	0.790937371454	1
13	3004	0.79375	2
13	3051	0.809754257831	3
13	3058	0.809814257831	1
13	3067	0.8125	2
13	3081	0.813074241632	1
13	3088	0.81625	2
13	3102	0.818098433449	1
13	3110	0.82	2
13	3124	0.821556792511	1
13	3132	0.82375	2
13	3157	0.828580557074	1
13	3164	0.83125	2
13	3211	0.847776509532	3
13	3218	0.847836509532	1
13	3227	0.85	2
13	3241	0.850214094758	1
13	3248	0.85375	2
13	3262	0.855587836326	1
13	3269	0.8575	2
13	3284	0.858247058774	1
13	3292	0.86125	2
13	3317	0.866603075473	1
13	3325	0.86875	2
13	3371	0.885345344691	3
13	3378	0.885405344691	1
13	3387	0.8875	2
13	3401	0.888526052635	1
13	3408	0.89125	2
13	3422	0.892071932497	1
13	3429	0.895	2
13	3444	0.895474538322	1
13	3452	0.89875	2
13	3477	0.902611171219	1
13	3485	0.90625	2
13	3531	0.922649933899	3
13	3538	0.922709933899	1
13	3547	0.925	2
13	3561	0.925523624101	1
13	3568	0.92875	2
13	3582	0.929619300101	1
13	3589	0.9325	2
13	3603	0.932686062473	1
13	3612	0.93625	2
13	3637	0.941725736307	1
13	3645	0.94375	2
13	3691	0.96061347252	3
13	3698	0.96067347252	1
13	3707	0.9625	2
13	3721	0.964324904225	1
13	3728	0.96625	2
13	3742	0.968130004872	1
13	3749	0.97	2
13	3764	0.971003314751	1
13	3771	0.97375	2
13	3797	0.979060651189	1
13	3805	0.98125	2
13	3851	0.997566328819	3
13	3858	0.997626328819	1
13	3872	1	2
13	3886	1.001188573879	1
13	3893	1.00375	2
13	3907	1.005134933036	1
13	3914	1.0075	2
13	3929	1.008994466525	1
13	3937	1.01125	2
13	3962	1.015962082573	1
13	3969	1.01875	2
13	4016	1.034067297711	3
13	4023	1.034127297711	1
13	4032	1.0375	2
13	4046	1.039360755026	1
13	4053	1.04125	2
13	4067	1.041859585343	1
13	4075	1.045	2
13	4089	1.04585895902	1
13	4096	1.04875	2
13	4122	1.053542792179	1
13	4130	1.05625	2
13	4176	1.071855389157	3
13	4183	1.071915389157	1
13	4192	1.075	2
13	4206	1.075728837308	1
13	4213	1.07875	2
13	4227	1.08023878553	1
13	4235	1.0825	2
13	4249	1.082645814841	1
13	4257	1.08625	2
13	4282	1.091808845334	1
13	4290	1.09375	2
13	4336	1.110593412704	3
13	4343	1.110653412704	1
13	4352	1.1125	2
13	4366	1.113893699109	1
13	4373	1.11625	2
13	4387	1.117137707253	1
13	4394	1.12	2
13	4409	1.121030349459	1
13	4416	1.12375	2
13	4442	1.128505167605	1
13	4450	1.13125	2
13	4496	1.147908384249	3
13	4503	1.147968384249	1
13	4512	1.15	2
13	4526	1.150666806751	1
13	4533	1.15375	2
13	4547	1.154848230243	1
13	4554	1.1575	2
13	4569	1.158047188191	1
13	4577	1.16125	2
13	4602	1.166135746466	1
13	4610	1.16875	2
13	4656	1.184475418533	3
13	4663	1.184535418533	1
13	4672	1.1875	2
13	4686	1.188298791703	1
13	4693	1.19125	2
13	4707	1.192870198469	1
13	4715	1.195	2
13	4729	1.196797441935	1
13	4737	1.19875	2
13	4762	1.203941567521	1
13	4769	1.20625	2
13	4816	1.221260395789	3
13	4823	1.221320395789	1
13	4832	1.225	2
13	4846	1.225771186594	1
13	4853	1.22875	2
13	4867	1.230176101474	1
13	4875	1.2325	2
13	4889	1.232584574291	1
13	4897	1.23625	2
13	4922	1.240727204827	1
13	4930	1.24375	2
13	4976	1.260245134269	3
13	4983	1.260305134269	1
13	4992	1.2625	2
13	5006	1.262959416611	1
13	5013	1.26625	2
13	5027	1.266815270784	1
13	5034	1.27	2
13	5049	1.27073896817	1
13	5057	1.27375	2
13	5082	1.278652700949	1
13	5090	1.28125	2
13	5136	1.297896813041	3
13	5143	1.297956813041	1
13	5152	1.3	2
13	5166	1.300108074804	1
13	5173	1.30375	2
13	5187	1.304491402828	1
13	5194	1.3075	2
13	5209	1.308801795573	1
13	5217	1.31125	2
13	5242	1.316003679752	1
13	5249	1.31875	2
13	5296	1.334476606426	3
13	5303	1.334536606426	1
13	5312	1.3375	2
13	5326	1.338999207267	1
13	5333	1.34125	2
13	5347	1.342242180148	1
13	5355	1.345	2
13	5369	1.346774808479	1
13	5376	1.34875	2
13	5402	1.353338115219	1
13	5409	1.35625	2
13	5456	1.372799440011	3
13	5463	1.372859440011	1
13	5472	1.375	2
13	5486	1.375718051599	1
13	5493	1.37875	2
13	5507	1.379582191358	1
13	5514	1.3825	2
13	5529	1.383593250354	1
13	5537	1.38625	2
13	5562	1.391242996762	1
13	5570	1.39375	2
13	5616	1.410574207545	3
13	5623	1.410634207545	1
13	5632	1.4125	2
13	5646	1.413201251042	1
13	5653	1.41625	2
13	5667	1.416521622186	1
13	5674	1.42	2
13	5689	1.420775841042	1
13	5697	1.42375	2
13	5722	1.428147526512	1
13	5730	1.43125	2
13	5776	1.448054611704	3
13	5783	1.448114611704	1
13	5792	1.45	2
13	5806	1.450138537482	1
13	5813	1.45375	2
13	5827	1.455023318455	1
13	5834	1.4575	2
13	5849	1.458944666322	1
13	5857	1.46125	2
13	5882	1.466856127417	1
13	5889	1.46875	2
13	5936	1.48498283572	3
13	5943	1.48504283572	1
13	5952	1.4875	2
13	5966	1.489066639524	1
13	5973	1.49125	2
13	5987	1.491712608809	1
13	5994	1.495	2
13	6009	1.495490265465	1
13	6016	1.49875	2
13	6042	1.503341579476	1
13	6050	1.50625	2
13	6096	1.522898503807	3
13	6103	1.522958503807	1
13	6112	1.525	2
13	6126	1.5262673704	1
13	6133	1.52875	2
13	6147	1.529921097463	1
13	6154	1.5325	2
13	6169	1.533800444266	1
13	6176	1.53625	2
13	6202	1.541534239743	1
13	6209	1.54375	2
13	6256	1.559069644623	3
13	6263	1.559129644623	1
13	6272	1.5625	2
13	6286	1.563557937609	1
13	6293	1.56625	2
13	6307	1.567963264711	1
13	6315	1.57	2
13	6329	1.571875711605	1
13	6337	1.57375	2
13	6362	1.579018932078	1
13	6369	1.58125	2
13	6416	1.597328037883	3
13	6423	1.597388037883	1
13	6432	1.6	2
13	6446	1.600311330929	1
13	6453	1.60375	2
13	6467	1.604704248169	1
13	6475	1.6075	2
13	6489	1.609189385463	1
13	6497	1.61125	2
13	6522	1.615849801221	1
13	6529	1.61875	2
13	6576	1.635153958522	3
13	6583	1.635213958522	1
13	6592	1.6375	2
13	6606	1.638683254231	1
13	6613	1.64125	2
13	6627	1.642807514885	1
13	6634	1.645	2
13	6649	1.645259990283	1
13	6657	1.64875	2
13	6682	1.653578939094	1
13	6690	1.65625	2
13	6736	1.67194113914	3
13	6743	1.67200113914	1
13	6752	1.675	2
13	6766	1.675474237876	1
13	6773	1.67875	2
13	6787	1.679214803777	1
13	6795	1.6825	2
13	6809	1.684282276734	1
13	6817	1.68625	2
13	6842	1.691573687671	1
13	6849	1.69375	2
13	6896	1.709860158574	3
13	6903	1.709920158574	1
13	6912	1.7125	2
13	6926	1.714056830386	1
13	6933	1.71625	2
13	6947	1.716959362868	1
13	6955	1.72	2
13	6969	1.721099928295	1
13	6976	1.72375	2
13	7002	1.728054751519	1
13	7010	1.73125	2
13	7056	1.74792839826	3
13	7063	1.74798839826	1
13	7072	1.75	2
13	7086	1.751773758301	1
13	7093	1.75375	2
13	7107	1.755552304096	1
13	7114	1.7575	2
13	7129	1.75834717077	1
13	7136	1.76125	2
13	7162	1.76689322939	1
13	7170	1.76875	2
13	7216	1.784762859081	3
13	7223	1.784822859081	1
13	7232	1.7875	2
13	7246	1.789280889385	1
13	7253	1.79125	2
13	7267	1.792450995841	1
13	7275	1.795	2
13	7289	1.795135187848	1
13	7296	1.79875	2
13	7322	1.804109385207	1
13	7330	1.80625	2
13	7376	1.822624042164	3
13	7383	1.822684042164	1
13	7392	1.825	2
13	7406	1.826229347748	1
13	7413	1.82875	2
13	7427	1.8304908678	1
13	7434	1.8325	2
13	7449	1.832891502083	1
13	7457	1.83625	2
13	7482	1.841631099059	1
13	7490	1.84375	2
13	7536	1.859858607542	3
13	7543	1.859918607542	1
13	7552	1.8625	2
13	7566	1.863566017466	1
13	7573	1.86625	2
13	7587	1.867227540846	1
13	7595	1.87	2
13	7609	1.870662639126	1
13	7617	1.87375	2
13	7642	1.878587493866	1
13	7650	1.88125	2
13	7696	1.896994851236	3
13	7703	1.897054851236	1
13	7712	1.9	2
13	7726	1.901371767949	1
13	7733	1.90375	2
13	7747	1.904330365311	1
13	7755	1.9075	2
13	7769	1.908021062709	1
13	7776	1.91125	2
13	7802	1.916815631863	1
13	7810	1.91875	2
13	7856	1.934099925895	3
13	7863	1.934159925895	1
13	7872	1.9375	2
13	7886	1.938429684172	1
13	7893	1.94125	2
13	7907	1.941517510181	1
13	7915	1.945	2
13	7929	1.946658208582	1
13	7937	1.94875	2
13	7962	1.953074027889	1
13	7969	1.95625	2
13	8016	1.971648938821	3
13	8023	1.971708938821	1
13	8032	1.975	2
13	8046	1.975079385609	1
13	8053	1.97875	2
13	8067	1.978810398502	1
13	8075	1.9825	2
13	8089	1.983740216269	1
13	8097	1.98625	2
13	8122	1.990234347281	1
13	8130	1.99375	2
13	8181	2.009303448073	3
13	8188	2.009363448073	1
13	8197	2.0125	2
13	8211	2.012888510011	1
13	8218	2.01625	2
13	8232	2.016661329052	1
13	8240	2.02	2
13	8254	2.02102552772	1
13	8262	2.02375	2
13	8287	2.027738831875	1
13	8295	2.03125	2
13	8341	2.047899981908	3
13	8348	2.047959981908	1
13	8357	2.05	2
13	8371	2.050592208918	1
13	8378	2.05375	2
13	8392	2.055281651637	1
13	8399	2.0575	2
13	8414	2.057963149996	1
13	8422	2.06125	2
13	8447	2.066053581487	1
13	8455	2.06875	2
13	8501	2.084285506998	3
13	8508	2.084345506998	1
13	8517	2.0875	2
13	8531	2.088073612787	1
13	8538	2.09125	2
13	8552	2.092194060267	1
13	8560	2.095	2
13	8574	2.095109637056	1
13	8582	2.09875	2
13	8607	2.103590473317	1
13	8615	2.10625	2
13	8661	2.122880703665	3
13	8668	2.122940703665	1
13	8677	2.125	2
13	8691	2.126644753883	1
13	8698	2.12875	2
13	8712	2.129326612778	1
13	8719	2.1325	2
13	8734	2.134413622481	1
13	8741	2.13625	2
13	8767	2.140332436201	1
13	8774	2.14375	2
13	8821	2.158841627662	3
13	8828	2.158901627662	1
13	8837	2.1625	2
13	8851	2.163507813598	1
13	8858	2.16625	2
13	8872	2.166745388501	1
13	8880	2.17	2
13	8894	2.170688469277	1
13	8902	2.17375	2
13	8927	2.178766375708	1
13	8935	2.18125	2
13	8981	2.196553178937	3
13	8988	2.196613178937	1
13	8997	2.2	2
13	9011	2.200362916595	1
13	9018	2.20375	2
13	9032	2.204221335481	1
13	9040	2.2075	2
13	9054	2.209191690332	1
13	9062	2.21125	2
13	9087	2.216628637378	1
13	9094	2.21875	2
13	9141	2.234157629542	3
13	9148	2.234217629542	1
13	9157	2.2375	2
13	9171	2.238910819327	1
13	9178	2.24125	2
13	9192	2.24270095749	1
13	9200	2.245	2
13	9214	2.245156707139	1
13	9221	2.24875	2
13	9247	2.253784580237	1
13	9255	2.25625	2
13	9301	2.272418635624	3
13	9308	2.272478635624	1
13	9317	2.275	2
13	9331	2.276558077121	1
13	9338	2.27875	2
13	9352	2.279346921629	1
13	9360	2.2825	2
13	9374	2.282618755959	1
13	9381	2.28625	2
13	9407	2.291584132941	1
13	9415	2.29375	2
13	9461	2.309180451302	3
13	9468	2.309240451302	1
13	9477	2.3125	2
13	9491	2.3135836781	1
13	9498	2.31625	2
13	9512	2.317631343345	1
13	9520	2.32	2
13	9534	2.320094423099	1
13	9542	2.32375	2
13	9567	2.327724346487	1
13	9575	2.33125	2
13	9621	2.346280206747	3
13	9628	2.346340206747	1
13	9637	2.35	2
13	9651	2.350117522053	1
13	9658	2.35375	2
13	9672	2.355563358772	1
13	9680	2.3575	2
13	9694	2.358229794785	1
13	9702	2.36125	2
13	9727	2.365792514932	1
13	9735	2.36875	2
13	9781	2.384855841234	3
13	9788	2.384915841234	1
13	9797	2.3875	2
13	9811	2.389267645876	1
13	9818	2.39125	2
13	9832	2.39140808439	1
13	9840	2.395	2
13	9854	2.396596664361	1
13	9861	2.39875	2
13	9887	2.402683286164	1
13	9894	2.40625	2
13	9941	2.421419444459	3
13	9948	2.421479444459	1
13	9957	2.425	2
13	9971	2.425141731508	1
13	9978	2.42875	2
13	9992	2.429481867359	1
13	10000	2.4325	2
13	10014	2.433301074456	1
13	10022	2.43625	2
13	10047	2.440095763897	1
13	10055	2.44375	2
13	10101	2.460003300718	3
13	10108	2.460063300718	1
13	10117	2.4625	2
13	10131	2.463403966886	1
13	10138	2.46625	2
13	10152	2.466681467621	1
13	10159	2.47	2
13	10174	2.470117107254	1
13	10182	2.47375	2
13	10207	2.479203166384	1
13	10215	2.48125	2
13	10261	2.496756913693	3
13	10268	2.496816913693	1
13	10277	2.5	2
13	10291	2.500870896345	1
13	10298	2.50375	2
13	10312	2.503815009109	1
13	10320	2.5075	2
13	10334	2.508721994522	1
13	10342	2.51125	2
13	10367	2.515873440373	1
13	10375	2.51875	2
13	10421	2.534294550148	3
13	10428	2.534354550148	1
13	10437	2.5375	2
13	10451	2.53866111841	1
13	10458	2.54125	2
13	10472	2.542463769102	1
13	10480	2.545	2
13	10494	2.546920137249	1
13	10502	2.54875	2
13	10527	2.554348279215	1
13	10534	2.55625	2
13	10581	2.57206660155	3
13	10588	2.57212660155	1
13	10597	2.575	2
13	10611	2.575900194371	1
13	10618	2.57875	2
13	10632	2.579489718124	1
13	10640	2.5825	2
13	10654	2.582948385222	1
13	10662	2.58625	2
13	10687	2.591697280545	1
13	10695	2.59375	2
13	10741	2.609547563679	3
13	10748	2.609607563679	1
13	10757	2.6125	2
13	10771	2.613469642594	1
13	10778	2.61625	2
13	10792	2.617143743525	1
13	10800	2.62	2
13	10814	2.621454908088	1
13	10822	2.62375	2
13	10847	2.628511949562	1
13	10854	2.63125	2
13	10901	2.647664089286	3
13	10908	2.647724089286	1
13	10917	2.65	2
13	10931	2.65104591663	1
13	10938	2.65375	2
13	10952	2.654417072787	1
13	10959	2.6575	2
13	10973	2.657639721515	1
13	10982	2.66125	2
13	11007	2.666438950646	1
13	11015	2.66875	2
13	11061	2.684058285796	3
13	11068	2.684118285796	1
13	11077	2.6875	2
13	11091	2.687908147537	1
13	11098	2.69125	2
13	11112	2.692154342744	1
13	11120	2.695	2
13	11134	2.695307838828	1
13	11142	2.69875	2
13	11167	2.703887612734	1
13	11175	2.70625	2
13	11221	2.721268697324	3
13	11228	2.721328697324	1
13	11237	2.725	2
13	11251	2.726518144117	1
13	11258	2.72875	2
13	11272	2.72950961876	1
13	11280	2.7325	2
13	11294	2.734017234914	1
13	11301	2.73625	2
13	11327	2.740080418512	1
13	11334	2.74375	2
13	11381	2.759692710152	3
13	11388	2.759752710152	1
13	11397	2.7625	2
13	11411	2.764151033037	1
13	11418	2.76625	2
13	11432	2.768104068527	1
13	11440	2.77	2
13	11454	2.770516104511	1
13	11461	2.77375	2
13	11487	2.778182429989	1
13	11495	2.78125	2
13	11541	2.797525051102	3
13	11548	2.797585051102	1
13	11557	2.8	2
13	11571	2.800962900828	1
13	11578	2.80375	2
13	11592	2.8050798038	1
13	11599	2.8075	2
13	11614	2.808963368029	1
13	11622	2.81125	2
13	11647	2.816721093159	1
13	11654	2.81875	2
13	11701	2.835358449095	3
13	11708	2.835418449095	1
13	11717	2.8375	2
13	11731	2.837848102422	1
13	11738	2.84125	2
13	11752	2.842087279381	1
13	11759	2.845	2
13	11774	2.846835218264	1
13	11782	2.84875	2
13	11807	2.854151450255	1
13	11814	2.85625	2
13	11861	2.871800769501	3
13	11868	2.871860769501	1
13	11877	2.875	2
13	11891	2.875893737297	1
13	11898	2.87875	2
13	11912	2.880191292789	1
13	11920	2.8825	2
13	11934	2.88390219257	1
13	11942	2.88625	2
13	11967	2.890951802352	1
13	11974	2.89375	2
13	12021	2.908765840684	3
13	12028	2.908825840684	1
13	12037	2.9125	2
13	12051	2.912869292674	1
13	12058	2.91625	2
13	12072	2.916357419451	1
13	12080	2.92	2
13	12094	2.921611641814	1
13	12102	2.92375	2
13	12127	2.929323511462	1
13	12134	2.93125	2
13	12181	2.947261933393	3
13	12188	2.947321933393	1
13	12197	2.95	2
13	12211	2.950251675438	1
13	12218	2.95375	2
13	12232	2.954474240074	1
13	12240	2.9575	2
13	12254	2.958801356384	1
13	12262	2.96125	2
13	12287	2.966638912439	1
13	12294	2.96875	2
13	12341	2.984281110151	3
13	12348	2.984341110151	1
13	12357	2.9875	2
13	12371	2.987619800927	1
13	12378	2.99125	2
13	12392	2.991686746185	1
13	12400	2.995	2
13	12414	2.995187170355	1
13	12422	2.99875	2
13	12452	3.003288293366	1
13	12460	3.00625	2
13	12506	3.022427839785	3
13	12513	3.022487839785	1
13	12522	3.025	2
13	12536	3.026796232277	1
13	12543	3.02875	2
13	12557	3.030000685863	1
13	12565	3.0325	2
13	12579	3.033629430923	1
13	12586	3.03625	2
13	12612	3.041503423597	1
13	12620	3.04375	2
13	12666	3.060468839905	3
13	12673	3.060528839905	1
13	12682	3.0625	2
13	12696	3.063387770456	1
13	12703	3.06625	2
13	12717	3.067626912232	1
13	12724	3.07	2
13	12739	3.071669794921	1
13	12747	3.07375	2
13	12772	3.078499947635	1
13	12779	3.08125	2
13	12826	3.096965617333	3
13	12833	3.097025617333	1
13	12842	3.1	2
13	12856	3.101009079585	1
13	12863	3.10375	2
13	12877	3.10561913051	1
13	12885	3.1075	2
13	12899	3.10797045575	1
13	12907	3.11125	2
13	12932	3.11652323279	1
13	12940	3.11875	2
13	12986	3.133758744101	3
13	12993	3.133818744101	1
13	13002	3.1375	2
13	13016	3.138358869438	1
13	13023	3.14125	2
13	13037	3.142093609744	1
13	13045	3.145	2
13	13059	3.145709100812	1
13	13067	3.14875	2
13	13092	3.153616496987	1
13	13100	3.15625	2
13	13146	3.172260967397	3
13	13153	3.172320967397	1
13	13162	3.175	2
13	13176	3.176703720285	1
13	13183	3.17875	2
13	13197	3.179618692852	1
13	13205	3.1825	2
13	13219	3.183830638356	1
13	13226	3.18625	2
13	13252	3.191527603691	1
13	13259	3.19375	2
13	13306	3.210329374457	3
13	13313	3.210389374457	1
13	13322	3.2125	2
13	13336	3.21381140522	1
13	13343	3.21625	2
13	13357	3.218046719186	1
13	13364	3.22	2
13	13379	3.221358827163	1
13	13386	3.22375	2
13	13412	3.229324759054	1
13	13419	3.23125	2
13	13466	3.246894699804	3
13	13473	3.246954699804	1
13	13482	3.25	2
13	13496	3.251590202696	1
13	13503	3.25375	2
13	13517	3.254889752405	1
13	13525	3.2575	2
13	13539	3.257806531671	1
13	13546	3.26125	2
13	13572	3.265845617992	1
13	13580	3.26875	2
13	13626	3.284399931289	3
13	13633	3.284459931289	1
13	13642	3.2875	2
13	13656	3.287688790258	1
13	13663	3.29125	2
13	13677	3.291701108959	1
13	13685	3.295	2
13	13699	3.295243069414	1
13	13707	3.29875	2
13	13732	3.304186507172	1
13	13740	3.30625	2
13	13786	3.321674305299	3
13	13793	3.321734305299	1
13	13802	3.325	2
13	13816	3.326545785938	1
13	13823	3.32875	2
13	13837	3.330424593677	1
13	13845	3.3325	2
13	13859	3.33321454486	1
13	13866	3.33625	2
13	13892	3.340586779264	1
13	13900	3.34375	2
13	13946	3.359817138501	3
13	13953	3.359877138501	1
13	13962	3.3625	2
13	13976	3.362794951599	1
13	13983	3.36625	2
13	13997	3.36781978842	1
13	14005	3.37	2
13	14019	3.370199405798	1
13	14027	3.37375	2
13	14052	3.379122344113	1
13	14060	3.38125	2
13	14106	3.39686096175	3
13	14113	3.39692096175	1
13	14122	3.4	2
13	14136	3.400446029928	1
13	14143	3.40375	2
13	14157	3.405229550481	1
13	14165	3.4075	2
13	14179	3.408930192157	1
13	14187	3.41125	2
13	14212	3.415827416119	1
13	14219	3.41875	2
13	14266	3.43525640156	3
13	14273	3.43531640156	1
13	14282	3.4375	2
13	14296	3.438978604814	1
13	14303	3.44125	2
13	14317	3.441391033726	1
13	14324	3.445	2
13	14339	3.445566750082	1
13	14346	3.44875	2
13	14372	3.452761143157	1
13	14380	3.45625	2
13	14426	3.472874087953	3
13	14433	3.472934087953	1
13	14442	3.475	2
13	14456	3.475875948625	1
13	14463	3.47875	2
13	14477	3.480636415594	1
13	14484	3.4825	2
13	14499	3.482974319068	1
13	14507	3.48625	2
13	14532	3.49147769117	1
13	14540	3.49375	2
13	14586	3.510401166365	3
13	14593	3.510461166365	1
13	14602	3.5125	2
13	14616	3.514336585547	1
13	14623	3.51625	2
13	14637	3.517659580926	1
13	14644	3.52	2
13	14658	3.520403825752	1
13	14666	3.52375	2
13	14692	3.528897055451	1
13	14700	3.53125	2
13	14746	3.548101196604	3
13	14753	3.548161196604	1
13	14762	3.55	2
13	14776	3.551503653639	1
13	14783	3.55375	2
13	14797	3.553885953883	1
13	14804	3.5575	2
13	14819	3.55818031746	1
13	14826	3.56125	2
13	14852	3.565801193142	1
13	14860	3.56875	2
13	14906	3.58417864422	3
13	14913	3.58423864422	1
13	14922	3.5875	2
13	14936	3.588682441247	1
13	14943	3.59125	2
13	14957	3.592484561711	1
13	14965	3.595	2
13	14979	3.595342328903	1
13	14987	3.59875	2
13	15012	3.603337315374	1
13	15020	3.60625	2
13	15066	3.621577080294	3
13	15073	3.621637080294	1
13	15082	3.625	2
13	15096	3.626816631297	1
13	15103	3.62875	2
13	15117	3.629088934893	1
13	15125	3.6325	2
13	15139	3.63376476508	1
13	15146	3.63625	2
13	15172	3.64008498622	1
13	15179	3.64375	2
13	15226	3.659475438147	3
13	15233	3.659535438147	1
13	15242	3.6625	2
13	15256	3.662563055661	1
13	15263	3.66625	2
13	15277	3.667913516159	1
13	15285	3.67	2
13	15299	3.670137546376	1
13	15307	3.67375	2
13	15332	3.678274152871	1
13	15340	3.68125	2
13	15386	3.697048073583	3
13	15393	3.697108073583	1
13	15402	3.7	2
13	15416	3.700394497706	1
13	15423	3.70375	2
13	15437	3.705618410967	1
13	15445	3.7075	2
13	15459	3.709025778212	1
13	15467	3.71125	2
13	15491	3.71540270366	1
13	15499	3.71875	2
13	15546	3.734635391103	3
13	15553	3.734695391103	1
13	15562	3.7375	2
13	15576	3.73895711352	1
13	15583	3.74125	2
13	15597	3.741796692539	1
13	15605	3.745	2
13	15619	3.745697035415	1
13	15626	3.74875	2
13	15652	3.753858415362	1
13	15660	3.75625	2
13	15706	3.772470797856	3
13	15713	3.772530797856	1
13	15722	3.775	2
13	15736	3.776898576303	1
13	15743	3.77875	2
13	15757	3.780012260335	1
13	15764	3.7825	2
13	15779	3.783021892266	1
13	15786	3.78625	2
13	15812	3.790478484186	1
13	15820	3.79375	2
13	15866	3.810231707122	3
13	15873	3.810291707122	1
13	15882	3.8125	2
13	15896	3.81396689165	1
13	15903	3.81625	2
13	15917	3.817739545372	1
13	15924	3.82	2
13	15939	3.820911563606	1
13	15946	3.82375	2
13	15972	3.827785241392	1
13	15980	3.83125	2
13	16026	3.846579333787	3
13	16033	3.846639333787	1
13	16042	3.85	2
13	16056	3.851633109152	1
13	16063	3.85375	2
13	16077	3.854288318467	1
13	16085	3.8575	2
13	16099	3.858425927225	1
13	16106	3.86125	2
13	16132	3.86642072318	1
13	16140	3.86875	2
13	16186	3.8839858401	3
13	16193	3.8840458401	1
13	16202	3.8875	2
13	16216	3.888293243523	1
13	16223	3.89125	2
13	16237	3.892315810791	1
13	16245	3.895	2
13	16259	3.895785010771	1
13	16267	3.89875	2
13	16292	3.903116128193	1
13	16300	3.90625	2
13	16346	3.922627534953	3
13	16353	3.922687534953	1
13	16362	3.925	2
13	16376	3.925389649637	1
13	16383	3.92875	2
13	16397	3.9306355755	1
13	16404	3.9325	2
13	16419	3.932708738359	1
13	16427	3.93625	2
13	16451	3.9405145496	1
13	16460	3.94375	2
13	16506	3.959122935804	3
13	16513	3.959182935804	1
13	16522	3.9625	2
13	16536	3.96294757694	1
13	16543	3.96625	2
13	16557	3.967115645437	1
13	16565	3.97	2
13	16579	3.970855934341	1
13	16587	3.97375	2
13	16612	3.97876356384	1
13	16620	3.98125	2
13	16666	3.997596127782	3
13	16673	3.997656127782	1
13	16687	4	2
13	16701	4.000224002732	1
13	16708	4.00375	2
13	16722	4.005407052295	1
13	16729	4.0075	2
13	16744	4.008902161637	1
13	16752	4.01125	2
13	16777	4.01571777342	1
13	16784	4.01875	2
13	16831	4.033940771522	3
13	16838	4.034000771522	1
13	16847	4.0375	2
13	16861	4.038241344243	1
13	16868	4.04125	2
13	16882	4.041639415047	1
13	16890	4.045	2
13	16904	4.045690716102	1
13	16912	4.04875	2
13	16937	4.053897644712	1
13	16945	4.05625	2
13	16991	4.07201158456	3
13	16998	4.07207158456	1
13	17007	4.075	2
13	17021	4.076720036179	1
13	17028	4.07875	2
13	17042	4.078923243537	1
13	17050	4.0825	2
13	17064	4.08440355122	1
13	17071	4.08625	2
13	17097	4.090301750939	1
13	17104	4.09375	2
13	17151	4.10997420053	3
13	17158	4.11003420053	1
13	17167	4.1125	2
13	17181	4.113532401215	1
13	17188	4.11625	2
13	17202	4.117205922441	1
13	17209	4.12	2
13	17224	4.121716769948	1
13	17232	4.12375	2
13	17257	4.127724768452	1
13	17264	4.13125	2
13	17311	4.146556261131	3
13	17318	4.146616261131	1
13	17327	4.15	2
13	17341	4.151108199519	1
13	17348	4.15375	2
13	17362	4.155175284794	1
13	17370	4.1575	2
13	17384	4.157899823462	1
13	17392	4.16125	2
13	17417	4.16546874301	1
13	17425	4.16875	2
13	17471	4.184714503855	3
13	17478	4.184774503855	1
13	17487	4.1875	2
13	17501	4.189125727758	1
13	17508	4.19125	2
13	17522	4.192451910823	1
13	17530	4.195	2
13	17544	4.19524893364	1
13	17551	4.19875	2
13	17577	4.204122440204	1
13	17585	4.20625	2
13	17631	4.221935271976	3
13	17638	4.221995271976	1
13	17647	4.225	2
13	17661	4.225667199128	1
13	17668	4.22875	2
13	17682	4.229914723863	1
13	17690	4.2325	2
13	17704	4.23441428321	1
13	17712	4.23625	2
13	17737	4.240942719909	1
13	17744	4.24375	2
13	17791	4.260615531742	3
13	17798	4.260675531742	1
13	17807	4.2625	2
13	17821	4.263246204094	1
13	17828	4.26625	2
13	17842	4.267859199562	1
13	17849	4.27	2
13	17864	4.271879943819	1
13	17872	4.27375	2
13	17897	4.278861702804	1
13	17904	4.28125	2
13	17951	4.297248221699	3
13	17958	4.297308221699	1
13	17967	4.3	2
13	17981	4.30143579765	1
13	17988	4.30375	2
13	18002	4.304565407291	1
13	18010	4.3075	2
13	18024	4.30920129581	1
13	18031	4.31125	2
13	18057	4.31513750294	1
13	18064	4.31875	2
13	18111	4.335534081534	3
13	18118	4.335594081534	1
13	18127	4.3375	2
13	18141	4.338084992703	1
13	18148	4.34125	2
13	18162	4.342908159769	1
13	18169	4.345	2
13	18184	4.346309955718	1
13	18192	4.34875	2
13	18217	4.353761926732	1
13	18224	4.35625	2
13	18271	4.371284742988	3
13	18278	4.371344742988	1
13	18287	4.375	2
13	18301	4.375197976253	1
13	18308	4.37875	2
13	18322	4.379200244814	1
13	18330	4.3825	2
13	18344	4.383729013125	1
13	18352	4.38625	2
13	18377	4.390102760377	1
13	18385	4.39375	2
13	18431	4.409412276055	3
13	18438	4.409472276055	1
13	18447	4.4125	2
13	18461	4.412660460859	1
13	18468	4.41625	2
13	18482	4.4166191267	1
13	18490	4.42	2
13	18504	4.420870416346	1
13	18512	4.42375	2
13	18537	4.42923485338	1
13	18545	4.43125	2
13	18591	4.44678897378	3
13	18598	4.44684897378	1
13	18607	4.45	2
13	18621	4.451606836444	1
13	18628	4.45375	2
13	18642	4.454253392814	1
13	18650	4.4575	2
13	18664	4.458547613828	1
13	18671	4.46125	2
13	18697	4.46642334484	1
13	18705	4.46875	2
13	18751	4.484618967359	3
13	18758	4.484678967359	1
13	18767	4.4875	2
13	18781	4.487943084019	1
13	18788	4.49125	2
13	18802	4.492227606708	1
13	18810	4.495	2
13	18824	4.495434972121	1
13	18832	4.49875	2
13	18857	4.503049016815	1
13	18865	4.50625	2
13	18911	4.522545362592	3
13	18918	4.522605362592	1
13	18927	4.525	2
13	18941	4.525815112892	1
13	18948	4.52875	2
13	18962	4.529278109947	1
13	18969	4.5325	2
13	18984	4.533378922818	1
13	18992	4.53625	2
13	19017	4.540328282838	1
13	19025	4.54375	2
13	19071	4.558778230252	3
13	19078	4.558838230252	1
13	19087	4.5625	2
13	19101	4.562806315325	1
13	19108	4.56625	2
13	19122	4.567984365304	1
13	19130	4.57	2
13	19144	4.571831402177	1
13	19152	4.57375	2
13	19176	4.577614821758	1
13	19184	4.58125	2
13	19231	4.596651705398	3
13	19238	4.596711705398	1
13	19247	4.6	2
13	19261	4.60075934094	1
13	19268	4.60375	2
13	19282	4.605084081931	1
13	19290	4.6075	2
13	19304	4.607739929252	1
13	19312	4.61125	2
13	19337	4.615948715982	1
13	19345	4.61875	2
13	19391	4.634119308106	3
13	19398	4.634179308106	1
13	19407	4.6375	2
13	19421	4.638637253674	1
13	19428	4.64125	2
13	19442	4.643077205431	1
13	19450	4.645	2
13	19464	4.64584075401	1
13	19472	4.64875	2
13	19497	4.653256300231	1
13	19505	4.65625	2
13	19551	4.671499680684	3
13	19558	4.671559680684	1
13	19567	4.675	2
13	19581	4.67642704329	1
13	19588	4.67875	2
13	19602	4.679430148477	1
13	19610	4.6825	2
13	19624	4.682796716984	1
13	19631	4.68625	2
13	19657	4.690330955152	1
13	19665	4.69375	2
13	19711	4.709221155467	3
13	19718	4.709281155467	1
13	19727	4.7125	2
13	19741	4.7141290609	1
13	19748	4.71625	2
13	19762	4.717962482971	1
13	19770	4.72	2
13	19784	4.720834572982	1
13	19791	4.72375	2
13	19817	4.729253847076	1
13	19825	4.73125	2
13	19871	4.746305840779	3
13	19878	4.746365840779	1
13	19887	4.75	2
13	19901	4.750599482892	1
13	19908	4.75375	2
13	19922	4.755404722715	1
13	19930	4.7575	2
13	19944	4.759373503904	1
13	19952	4.76125	2
13	19977	4.765492439806	1
13	19984	4.76875	2
13	20031	4.785002686252	3
13	20038	4.785062686252	1
13	20047	4.7875	2
13	20061	4.789258771648	1
13	20068	4.79125	2
13	20082	4.792253304486	1
13	20089	4.795	2
13	20104	4.795645893992	1
13	20111	4.79875	2
13	20137	4.803268921303	1
13	20145	4.80625	2
13	20191	4.822126256271	3
13	20198	4.822186256271	1
13	20207	4.825	2
13	20221	4.825692732326	1
13	20228	4.82875	2
13	20242	4.830609615523	1
13	20250	4.8325	2
13	20264	4.834345186844	1
13	20272	4.83625	2
13	20297	4.841687513911	1
13	20304	4.84375	2
13	20351	4.860050000926	3
13	20358	4.860110000926	1
13	20367	4.8625	2
13	20381	4.862970392306	1
13	20388	4.86625	2
13	20402	4.867311607462	1
13	20409	4.87	2
13	20424	4.871381630707	1
13	20432	4.87375	2
13	20457	4.877641709969	1
13	20464	4.88125	2
13	20511	4.897090775239	3
13	20518	4.897150775239	1
13	20527	4.9	2
13	20541	4.900524324675	1
13	20548	4.90375	2
13	20562	4.903979794245	1
13	20570	4.9075	2
13	20584	4.909328611888	1
13	20592	4.91125	2
13	20617	4.916021124529	1
13	20624	4.91875	2
13	20671	4.934794112818	3
13	20678	4.934854112818	1
13	20687	4.9375	2
13	20701	4.938173051336	1
13	20708	4.94125	2
13	20722	4.941980513465	1
13	20730	4.945	2
13	20744	4.94668259555	1
13	20752	4.94875	2
13	20777	4.952577886231	1
13	20784	4.95625	2
13	20831	4.972647885278	3
13	20838	4.972707885278	1
13	20847	4.975	2
13	20861	4.97553556979	1
13	20868	4.97875	2
13	20882	4.979495040596	1
13	20889	4.9825	2
13	20904	4.983036841826	1
13	20912	4.98625	2
13	20937	4.991464476226	1
13	20945	4.99375	2
13	21119	5.10375	1
13	21196	5.2	2
13	21204	5.20375	1
13	21281	5.3	2
13	21286	5.300320035366	3
13	21293	5.300380035366	1
13	21420	5.4	2
13	21458	5.40308836398	1
13	21587	5.5	2
13	21616	5.502785004213	1
13	21717	5.6	2
13	21746	5.6028757997	1
13	21850	5.7	2
13	21858	5.70375	1
13	21981	5.8	2
13	22015	5.802518133757	1
13	22131	5.9	2
13	22139	5.90375	1
13	22248	6	2
13	22253	6.00375	1
13	22372	6.1	2
13	22380	6.10375	1
13	22478	6.2	2
13	22486	6.20375	1
13	22596	6.3	2
13	22601	6.300474837818	3
13	22626	6.302516837818	1
13	22746	6.4	2
13	22778	6.402256107162	1
13	22912	6.5	2
13	22941	6.503658366539	1
13	23061	6.6	2
13	23093	6.602321842519	1
13	23182	6.7	2
13	23190	6.70375	1
13	23315	6.8	2
13	23347	6.803581605888	1
13	23457	6.9	2
13	23468	6.90375	1
13	23574	7	2
13	23585	7.00375	1
13	23659	7.1	2
13	23664	7.10375	1
13	23801	7.2	2
13	23806	7.20375	1
13	23898	7.3	2
13	23903	7.300931364058	3
13	23925	7.302973364058	1
13	24039	7.4	2
13	24071	7.403630132921	1
13	24223	7.5	2
13	24255	7.5022687804	1
13	24383	7.6	2
13	24415	7.602468723676	1
13	24511	7.7	2
13	24516	7.70375	1
13	24608	7.8	2
13	24640	7.803891579709	1
13	24732	7.9	2
13	24737	7.90375	1
13	24858	8	2
13	24863	8.00375	1
13	24961	8.1	2
13	24969	8.10375	1
13	25100	8.2	2
13	25105	8.20375	1
13	25191	8.3	2
13	25196	8.30113276407	3
13	25218	8.30317476407	1
13	25329	8.4	2
13	25358	8.40242859985	1
13	25472	8.5	2
13	25507	8.502773357974	1
13	25608	8.6	2
13	25649	8.603008564929	1
13	25771	8.7	2
13	25776	8.70375	1
13	25868	8.8	2
13	25897	8.803865124539	1
13	26011	8.9	2
13	26019	8.90375	1
13	26122	9	2
13	26133	9.00375	1
13	26246	9.1	2
13	26251	9.10375	1
13	26355	9.2	2
13	26366	9.20375	1
13	26452	9.3	2
13	26457	9.300777502985	3
13	26479	9.302819502985	1
13	26609	9.4	2
13	26643	9.40278049053	1
13	26759	9.5	2
13	26791	9.502588425002	1
13	26890	9.6	2
13	26922	9.60335462668	1
13	27044	9.7	2
13	27052	9.70375	1
13	27183	9.8	2
13	27212	9.802744782749	1
13	27340	9.9	2
13	27348	9.90375	1
13	27430	10	2
13	27438	10.00375	1
13	27554	10.1	2
13	27562	10.10375	1
13	27669	10.2	2
13	27683	10.20375	1
13	27811	10.3	2
13	27816	10.300379426251	3
13	27838	10.302421426251	1
13	27925	10.4	2
13	27954	10.402438912244	1
13	28043	10.5	2
13	28075	10.503818925724	1
13	28197	10.6	2
13	28211	10.600585669814	1
13	28310	10.7	2
13	28321	10.70375	1
13	28419	10.8	2
13	28436	10.801588228531	1
13	28552	10.9	2
13	28560	10.90375	1
13	28664	11	2
13	28672	11.00375	1
13	28780	11.1	2
13	28788	11.10375	1
13	28889	11.2	2
13	28900	11.20375	1
13	29016	11.3	2
13	29021	11.300219571933	3
13	29043	11.302261571933	1
13	29163	11.4	2
13	29195	11.403595707714	1
13	29299	11.5	2
13	29328	11.503334514048	1
13	29432	11.6	2
13	29461	11.603265383903	1
13	29565	11.7	2
13	29570	11.70375	1
13	29647	11.8	2
13	29661	11.80126865338	1
13	29742	11.9	2
13	29747	11.90375	1
13	29850	12	2
13	29864	12.00375	1
13	29960	12.1	2
13	29971	12.10375	1
13	30061	12.2	2
13	30072	12.20375	1
[...]
83	12087	2.921551475032	2
83	12092	2.921611475032	1
83	12092	2.921611475032	0
83	12245	2.958741189602	1
83	12247	2.958741189602	2
83	12252	2.958801189602	1
83	12252	2.958801189602	0
83	12405	2.995127003573	1
83	12407	2.995127003573	2
83	12412	2.995187003573	1
83	12412	2.995187003573	0
83	12570	3.033569264141	1
83	12572	3.033569264141	2
83	12577	3.033629264141	1
83	12577	3.033629264141	0
83	12730	3.071609628139	1
83	12732	3.071609628139	2
83	12737	3.071669628139	1
83	12737	3.071669628139	0
83	12890	3.107910288968	1
83	12892	3.107910288968	2
83	12897	3.107970288968	1
83	12897	3.107970288968	0
83	13050	3.14564893403	1
83	13052	3.14564893403	2
83	13057	3.14570893403	1
83	13057	3.14570893403	0
83	13210	3.183770471574	1
83	13212	3.183770471574	2
83	13217	3.183830471574	1
83	13217	3.183830471574	0
83	13370	3.221298660381	1
83	13372	3.221298660381	2
83	13377	3.221358660381	1
83	13377	3.221358660381	0
83	13530	3.257746364889	1
83	13532	3.257746364889	2
83	13537	3.257806364889	1
83	13537	3.257806364889	0
83	13690	3.295182902632	1
83	13692	3.295182902632	2
83	13697	3.295242902632	1
83	13697	3.295242902632	0
83	13850	3.333154378078	1
83	13852	3.333154378078	2
83	13857	3.333214378078	1
83	13857	3.333214378078	0
83	14010	3.370139239016	1
83	14012	3.370139239016	2
83	14017	3.370199239016	1
83	14017	3.370199239016	0
83	14170	3.408870025375	1
83	14172	3.408870025375	2
83	14177	3.408930025375	1
83	14177	3.408930025375	0
83	14330	3.4455065833	1
83	14332	3.4455065833	2
83	14337	3.4455665833	1
83	14337	3.4455665833	0
83	14489	3.482914152286	1
83	14491	3.482914152286	2
83	14497	3.482974152286	1
83	14497	3.482974152286	0
83	14649	3.52034365897	1
83	14651	3.52034365897	2
83	14656	3.52040365897	1
83	14656	3.52040365897	0
83	14809	3.558120150678	1
83	14811	3.558120150678	2
83	14817	3.558180150678	1
83	14817	3.558180150678	0
83	14970	3.595282162121	1
83	14972	3.595282162121	2
83	14977	3.595342162121	1
83	14977	3.595342162121	0
83	15130	3.633704598298	1
83	15132	3.633704598298	2
83	15137	3.633764598298	1
83	15137	3.633764598298	0
83	15290	3.670077379594	1
83	15292	3.670077379594	2
83	15297	3.670137379594	1
83	15297	3.670137379594	0
83	15450	3.70896561143	1
83	15452	3.70896561143	2
83	15457	3.70902561143	1
83	15457	3.70902561143	0
83	15610	3.745636868633	1
83	15612	3.745636868633	2
83	15617	3.745696868633	1
83	15617	3.745696868633	0
83	15770	3.782961725484	1
83	15772	3.782961725484	2
83	15777	3.783021725484	1
83	15777	3.783021725484	0
83	15930	3.820851396824	1
83	15932	3.820851396824	2
83	15937	3.820911396824	1
83	15937	3.820911396824	0
83	16090	3.858365760443	1
83	16092	3.858365760443	2
83	16097	3.858425760443	1
83	16097	3.858425760443	0
83	16250	3.895724843989	1
83	16252	3.895724843989	2
83	16257	3.895784843989	1
83	16257	3.895784843989	0
83	16409	3.932648571577	1
83	16411	3.932648571577	2
83	16417	3.932708571577	1
83	16417	3.932708571577	0
83	16570	3.970795767559	1
83	16572	3.970795767559	2
83	16577	3.970855767559	1
83	16577	3.970855767559	0
83	16735	4.008841994855	1
83	16737	4.008841994855	2
83	16742	4.008901994855	1
83	16742	4.008901994855	0
83	16895	4.04563054932	1
83	16897	4.04563054932	2
83	16902	4.04569054932	1
83	16902	4.04569054932	0
83	17055	4.084343384438	1
83	17057	4.084343384438	2
83	17062	4.084403384438	1
83	17062	4.084403384438	0
83	17215	4.121656603166	1
83	17217	4.121656603166	2
83	17222	4.121716603166	1
83	17222	4.121716603166	0
83	17375	4.15783965668	1
83	17377	4.15783965668	2
83	17382	4.15789965668	1
83	17382	4.15789965668	0
83	17535	4.195188766858	1
83	17537	4.195188766858	2
83	17542	4.195248766858	1
83	17542	4.195248766858	0
83	17695	4.234354116428	1
83	17697	4.234354116428	2
83	17702	4.234414116428	1
83	17702	4.234414116428	0
83	17855	4.271819777037	1
83	17857	4.271819777037	2
83	17862	4.271879777037	1
83	17862	4.271879777037	0
83	18015	4.309141129028	1
83	18017	4.309141129028	2
83	18022	4.309201129028	1
83	18022	4.309201129028	0
83	18175	4.346249788936	1
83	18177	4.346249788936	2
83	18182	4.346309788936	1
83	18182	4.346309788936	0
83	18335	4.383668846343	1
83	18337	4.383668846343	2
83	18342	4.383728846343	1
83	18342	4.383728846343	0
83	18495	4.420810249564	1
83	18497	4.420810249564	2
83	18502	4.420870249564	1
83	18502	4.420870249564	0
83	18655	4.458487447046	1
83	18657	4.458487447046	2
83	18662	4.458547447046	1
83	18662	4.458547447046	0
83	18815	4.495374805339	1
83	18817	4.495374805339	2
83	18822	4.495434805339	1
83	18822	4.495434805339	0
83	18975	4.533318756036	1
83	18977	4.533318756036	2
83	18982	4.533378756036	1
83	18982	4.533378756036	0
83	19135	4.571771235395	1
83	19137	4.571771235395	2
83	19142	4.571831235395	1
83	19142	4.571831235395	0
83	19295	4.60767976247	1
83	19297	4.60767976247	2
83	19302	4.60773976247	1
83	19302	4.60773976247	0
83	19455	4.645780587228	1
83	19457	4.645780587228	2
83	19462	4.645840587228	1
83	19462	4.645840587228	0
83	19615	4.682736550202	1
83	19617	4.682736550202	2
83	19622	4.682796550202	1
83	19622	4.682796550202	0
83	19775	4.7207744062	1
83	19777	4.7207744062	2
83	19782	4.7208344062	1
83	19782	4.7208344062	0
83	19935	4.759313337122	1
83	19937	4.759313337122	2
83	19942	4.759373337122	1
83	19942	4.759373337122	0
83	20095	4.79558572721	1
83	20097	4.79558572721	2
83	20102	4.79564572721	1
83	20102	4.79564572721	0
83	20255	4.834285020062	1
83	20257	4.834285020062	2
83	20262	4.834345020062	1
83	20262	4.834345020062	0
83	20415	4.871321463925	1
83	20417	4.871321463925	2
83	20422	4.871381463925	1
83	20422	4.871381463925	0
83	20575	4.909268445106	1
83	20577	4.909268445106	2
83	20582	4.909328445106	1
83	20582	4.909328445106	0
83	20735	4.946622428768	1
83	20737	4.946622428768	2
83	20742	4.946682428768	1
83	20742	4.946682428768	0
83	20895	4.982976675044	1
83	20897	4.982976675044	2
83	20902	4.983036675044	1
83	20902	4.983036675044	0
83	21722	5.600737632918	1
83	21724	5.600737632918	2
83	21729	5.600797632918	1
83	21739	5.602612632918	2
83	21744	5.602875632918	1
83	21744	5.602875632918	0
83	23066	6.600183675737	1
83	23068	6.600183675737	2
83	23073	6.600243675737	1
83	23086	6.602058675737	2
83	23091	6.602321675737	1
83	23091	6.602321675737	0
83	24388	7.600330556894	1
83	24390	7.600330556894	2
83	24395	7.600390556894	1
83	24408	7.602205556894	2
83	24413	7.602468556894	1
83	24413	7.602468556894	0
83	25619	8.600870398147	1
83	25621	8.600870398147	2
83	25626	8.600930398147	1
83	25642	8.602745398147	2
83	25647	8.603008398147	1
83	25647	8.603008398147	0
83	26895	9.601216459898	1
83	26897	9.601216459898	2
83	26902	9.601276459898	1
83	26915	9.603091459898	2
83	26920	9.603354459898	1
83	26920	9.603354459898	0
83	28202	10.600525503032	1
83	28204	10.600525503032	2
83	28209	10.600585503032	1
83	28209	10.600585503032	0
83	29437	11.601223217121	1
83	29439	11.601223217121	2
83	29444	11.601283217121	1
83	29454	11.603098217121	2
83	29459	11.603265217121	1
83	29459	11.603265217121	0
83	31268	12.601650560535	1
83	31270	12.601650560535	2
83	31275	12.601710560535	1
83	31288	12.603525560535	2
83	31293	12.603788560535	1
83	31293	12.603788560535	0
83	32584	13.600926077915	1
83	32586	13.600926077915	2
83	32591	13.600986077915	1
83	32591	13.600986077915	0
83	33850	14.601743357046	1
83	33852	14.601743357046	2
83	33857	14.601803357046	1
83	33867	14.603618357046	2
83	33872	14.603785357046	1
83	33872	14.603785357046	0
83	35114	15.600097301535	1
83	35116	15.600097301535	2
83	35121	15.600157301535	1
83	35121	15.600157301535	0
83	37484	16.600922723306	1
83	37486	16.600922723306	2
83	37491	16.600982723306	1
83	37491	16.600982723306	0
83	39035	17.600535993897	1
83	39037	17.600535993897	2
83	39042	17.600595993897	1
83	39056	17.602410993897	2
83	39061	17.602577993897	1
83	39061	17.602577993897	0
83	40548	18.601272040324	1
83	40550	18.601272040324	2
83	40555	18.601332040324	1
83	40555	18.601332040324	0
83	42007	19.600300519229	1
83	42009	19.600300519229	2
83	42014	19.600360519229	1
83	42014	19.600360519229	0
83	43438	20.601473370988	1
83	43440	20.601473370988	2
83	43445	20.601533370988	1
83	43445	20.601533370988	0
83	44834	21.600434395307	1
83	44836	21.600434395307	2
83	44841	21.600494395307	1
83	44841	21.600494395307	0
83	46234	22.601694711556	1
83	46236	22.601694711556	2
83	46241	22.601754711556	1
83	46241	22.601754711556	0
83	47640	23.60120294913	1
83	47642	23.60120294913	2
83	47647	23.60126294913	1
83	47647	23.60126294913	0
83	49138	24.600578641737	1
83	49140	24.600578641737	2
83	49145	24.600638641737	1
83	49145	24.600638641737	0
83	50430	25.600744011406	1
83	50432	25.600744011406	2
83	50437	25.600804011406	1
83	50437	25.600804011406	0
83	51789	26.600613864093	1
83	51791	26.600613864093	2
83	51796	26.600673864093	1
83	51796	26.600673864093	0
83	53087	27.600861919306	1
83	53089	27.600861919306	2
83	53094	27.600921919306	1
83	53094	27.600921919306	0
83	54513	28.60026205656	1
83	54515	28.60026205656	2
83	54520	28.60032205656	1
83	54520	28.60032205656	0
83	55986	29.601473264093	1
83	55988	29.601473264093	2
83	55993	29.601533264093	1
83	55993	29.601533264093	0
83	57348	30.601074023039	1
83	57350	30.601074023039	2
83	57355	30.601134023039	1
83	57355	30.601134023039	0
83	58714	31.600245370884	1
83	58716	31.600245370884	2
83	58721	31.600305370884	1
83	58721	31.600305370884	0
83	60079	32.600035171524	1
83	60081	32.600035171524	2
83	60086	32.600095171524	1
83	60086	32.600095171524	0
83	61523	33.600916230998	1
83	61525	33.600916230998	2
83	61530	33.600976230998	1
83	61530	33.600976230998	0
83	62753	34.601011489549	1
83	62755	34.601011489549	2
83	62760	34.601071489549	1
83	62760	34.601071489549	0
83	64178	35.601396640912	1
83	64180	35.601396640912	2
83	64185	35.601456640912	1
83	64185	35.601456640912	0
83	65626	36.601523447969	1
83	65628	36.601523447969	2
83	65633	36.601583447969	1
83	65633	36.601583447969	0
83	67039	37.600908573367	1
83	67041	37.600908573367	2
83	67046	37.600968573367	1
83	67046	37.600968573367	0
83	68257	38.601402846928	1
83	68259	38.601402846928	2
83	68264	38.601462846928	1
83	68264	38.601462846928	0
83	69684	39.600166217457	1
83	69686	39.600166217457	2
83	69691	39.600226217457	1
83	69691	39.600226217457	0
83	71039	40.601705368582	1
83	71041	40.601705368582	2
83	71046	40.601765368582	1
83	71046	40.601765368582	0
83	72543	41.600095127419	1
83	72545	41.600095127419	2
83	72550	41.600155127419	1
83	72550	41.600155127419	0
83	73979	42.600907600442	1
83	73981	42.600907600442	2
83	73986	42.600967600442	1
83	73986	42.600967600442	0
83	75257	43.600640587338	1
83	75259	43.600640587338	2
83	75264	43.600700587338	1
83	75264	43.600700587338	0
83	76708	44.60161512649	1
83	76710	44.60161512649	2
83	76715	44.60167512649	1
83	76715	44.60167512649	0
83	78148	45.601874193328	1
83	78150	45.601874193328	2
83	78155	45.601934193328	1
83	78155	45.601934193328	0
83	79533	46.600420002471	1
83	79535	46.600420002471	2
83	79540	46.600480002471	1
83	79540	46.600480002471	0
83	81044	47.60030831094	1
83	81046	47.60030831094	2
83	81051	47.60036831094	1
83	81051	47.60036831094	0
83	82436	48.60104431637	1
83	82438	48.60104431637	2
83	82443	48.60110431637	1
83	82443	48.60110431637	0
83	83736	49.601755411052	1
83	83738	49.601755411052	2
83	83743	49.601815411052	1
83	83743	49.601815411052	0
83	85065	50.600690756063	1
83	85067	50.600690756063	2
83	85072	50.600750756063	1
83	85072	50.600750756063	0
83	86530	51.601608970006	1
83	86532	51.601608970006	2
83	86537	51.601668970006	1
83	86537	51.601668970006	0
83	87900	52.600892478896	1
83	87902	52.600892478896	2
83	87907	52.600952478896	1
83	87907	52.600952478896	0
83	89204	53.600228821098	1
83	89206	53.600228821098	2
83	89211	53.600288821098	1
83	89211	53.600288821098	0
83	90547	54.600813955026	1
83	90549	54.600813955026	2
83	90554	54.600873955026	1
83	90554	54.600873955026	0
83	91952	55.600115311032	1
83	91954	55.600115311032	2
83	91959	55.600175311032	1
83	91959	55.600175311032	0
83	93292	56.600815798299	1
83	93294	56.600815798299	2
83	93299	56.600875798299	1
83	93299	56.600875798299	0
83	94619	57.601129771489	1
83	94621	57.601129771489	2
83	94626	57.601189771489	1
83	94626	57.601189771489	0
83	96025	58.60122552222	1
83	96027	58.60122552222	2
83	96032	58.60128552222	1
83	96032	58.60128552222	0
83	97345	59.601542752939	1
83	97347	59.601542752939	2
83	97352	59.601602752939	1
83	97352	59.601602752939	0
83	98598	60.600290504102	1
83	98600	60.600290504102	2
83	98605	60.600350504102	1
83	98605	60.600350504102	0
83	99956	61.600702487799	1
83	99958	61.600702487799	2
83	99963	61.600762487799	1
83	99963	61.600762487799	0
83	101275	62.600815854914	1
83	101277	62.600815854914	2
83	101282	62.600875854914	1
83	101282	62.600875854914	0
83	102634	63.600456537697	1
83	102636	63.600456537697	2
83	102641	63.600516537697	1
83	102641	63.600516537697	0
83	103957	64.600347212862	1
83	103959	64.600347212862	2
83	103964	64.600407212862	1
83	103964	64.600407212862	0
83	105235	65.600024320053	1
83	105237	65.600024320053	2
83	105242	65.600084320053	1
83	105242	65.600084320053	0
83	106650	66.6011935564	1
83	106652	66.6011935564	2
83	106657	66.6012535564	1
83	106657	66.6012535564	0
83	107852	67.600250322592	1
83	107854	67.600250322592	2
83	107859	67.600310322592	1
83	107859	67.600310322592	0
83	109052	68.601015268695	1
83	109054	68.601015268695	2
83	109059	68.601075268695	1
83	109059	68.601075268695	0
83	110337	69.600594938597	1
83	110339	69.600594938597	2
83	110344	69.600654938597	1
83	110344	69.600654938597	0
83	111819	70.60171280405	1
83	111821	70.60171280405	2
83	111826	70.60177280405	1
83	111826	70.60177280405	0
83	113209	71.600826881441	1
83	113211	71.600826881441	2
83	113216	71.600886881441	1
83	113216	71.600886881441	0
83	114636	72.601244327354	1
83	114638	72.601244327354	2
83	114643	72.601304327354	1
83	114643	72.601304327354	0
83	116005	73.600623949524	1
83	116007	73.600623949524	2
83	116012	73.600683949524	1
83	116012	73.600683949524	0
83	117451	74.600555384289	1
83	117453	74.600555384289	2
83	117458	74.600615384289	1
83	117458	74.600615384289	0
83	118893	75.601244929519	1
83	118895	75.601244929519	2
83	118900	75.601304929519	1
83	118900	75.601304929519	0
83	120229	76.60144972481	1
83	120231	76.60144972481	2
83	120236	76.60150972481	1
83	120236	76.60150972481	0
83	121615	77.601428045847	1
83	121617	77.601428045847	2
83	121622	77.601488045847	1
83	121622	77.601488045847	0
83	122894	78.600369412979	1
83	122896	78.600369412979	2
83	122901	78.600429412979	1
83	122901	78.600429412979	0
83	124235	79.601022177649	1
83	124237	79.601022177649	2
83	124242	79.601082177649	1
83	124242	79.601082177649	0
83	125664	80.600263890032	1
83	125666	80.600263890032	2
83	125671	80.600323890032	1
83	125671	80.600323890032	0
83	127028	81.600078536232	1
83	127030	81.600078536232	2
83	127035	81.600138536232	1
83	127035	81.600138536232	0
83	128398	82.600447685309	1
83	128400	82.600447685309	2
83	128405	82.600507685309	1
83	128405	82.600507685309	0
83	129808	83.601107609027	1
83	129810	83.601107609027	2
83	129818	83.601167609027	1
83	129818	83.601167609027	0
83	131145	84.600262845345	1
83	131147	84.600262845345	2
83	131152	84.600322845345	1
83	131152	84.600322845345	0
83	132473	85.601550245276	1
83	132475	85.601550245276	2
83	132480	85.601610245276	1
83	132480	85.601610245276	0
83	133901	86.60174325704	1
83	133903	86.60174325704	2
83	133908	86.60180325704	1
83	133908	86.60180325704	0
83	135328	87.600580357426	1
83	135330	87.600580357426	2
83	135335	87.600640357426	1
83	135335	87.600640357426	0
83	136645	88.600580119908	1
83	136647	88.600580119908	2
83	136652	88.600640119908	1
83	136652	88.600640119908	0
83	138029	89.601702378747	1
83	138031	89.601702378747	2
83	138036	89.601762378747	1
83	138036	89.601762378747	0
83	139444	90.600928616558	1
83	139446	90.600928616558	2
83	139451	90.600988616558	1
83	139451	90.600988616558	0
83	140867	91.601032910711	1
83	140869	91.601032910711	2
83	140874	91.601092910711	1
83	140874	91.601092910711	0
83	142138	92.600371429314	1
83	142140	92.600371429314	2
83	142145	92.600431429314	1
83	142145	92.600431429314	0
83	143456	93.60062605684	1
83	143458	93.60062605684	2
83	143463	93.60068605684	1
83	143463	93.60068605684	0
83	144815	94.600190290289	1
83	144817	94.600190290289	2
83	144822	94.600250290289	1
83	144822	94.600250290289	0
83	146261	95.601045581909	1
83	146263	95.601045581909	2
83	146268	95.601105581909	1
83	146268	95.601105581909	0
83	147649	96.601171710748	1
83	147651	96.601171710748	2
83	147656	96.601231710748	1
83	147656	96.601231710748	0
83	148985	97.600676047043	1
83	148987	97.600676047043	2
83	148992	97.600736047043	1
83	148992	97.600736047043	0
83	150329	98.600569223373	1
83	150331	98.600569223373	2
83	150336	98.600629223373	1
83	150336	98.600629223373	0
83	151704	99.600297833956	1
83	151706	99.600297833956	2
83	151711	99.600357833956	1
83	151711	99.600357833956	0
83	153087	100.600672865498	1
83	153089	100.600672865498	2
83	153094	100.600732865498	1
83	153094	100.600732865498	0
83	154426	101.601634421634	1
83	154428	101.601634421634	2
83	154433	101.601694421634	1
83	154433	101.601694421634	0
83	155801	102.600564106632	1
83	155803	102.600564106632	2
83	155808	102.600624106632	1
83	155808	102.600624106632	0
83	157289	103.600841054149	1
83	157291	103.600841054149	2
83	157296	103.600901054149	1
83	157296	103.600901054149	0
83	158718	104.601311725029	1
83	158720	104.601311725029	2
83	158725	104.601371725029	1
83	158725	104.601371725029	0
83	160079	105.601244265064	1
83	160081	105.601244265064	2
83	160086	105.601304265064	1
83	160086	105.601304265064	0
83	161445	106.600155678431	1
83	161447	106.600155678431	2
83	161452	106.600215678431	1
83	161452	106.600215678431	0
83	162784	107.600393662116	1
83	162786	107.600393662116	2
83	162791	107.600453662116	1
83	162791	107.600453662116	0
83	164203	108.601093620906	1
83	164205	108.601093620906	2
83	164210	108.601153620906	1
83	164210	108.601153620906	0
83	165541	109.600958089507	1
83	165543	109.600958089507	2
83	165548	109.601018089507	1
83	165548	109.601018089507	0
83	166933	110.601529961653	1
83	166935	110.601529961653	2
83	166940	110.601589961653	1
83	166940	110.601589961653	0
83	168339	111.601813147483	1
83	168341	111.601813147483	2
83	168346	111.601873147483	1
83	168346	111.601873147483	0
83	169738	112.600719304659	1
83	169740	112.600719304659	2
83	169745	112.600779304659	1
83	169745	112.600779304659	0
83	171040	113.601038526215	1
83	171042	113.601038526215	2
83	171047	113.601098526215	1
83	171047	113.601098526215	0
83	172406	114.601205210069	1
83	172408	114.601205210069	2
83	172413	114.601265210069	1
83	172413	114.601265210069	0
83	173778	115.600606793275	1
83	173780	115.600606793275	2
83	173785	115.600666793275	1
83	173785	115.600666793275	0
83	175285	116.601679725971	1
83	175287	116.601679725971	2
83	175292	116.601739725971	1
83	175292	116.601739725971	0
83	176695	117.600565603269	1
83	176697	117.600565603269	2
83	176702	117.600625603269	1
83	176702	117.600625603269	0
83	178058	118.601859383368	1
83	178060	118.601859383368	2
83	178065	118.601919383368	1
83	178065	118.601919383368	0
83	179350	119.601648527165	1
83	179352	119.601648527165	2
83	179357	119.601708527165	1
83	179357	119.601708527165	0
83	180590	120.601085151942	1
83	180592	120.601085151942	2
83	180597	120.601145151942	1
83	180597	120.601145151942	0
83	182029	121.600672028676	1
83	182031	121.600672028676	2
83	182036	121.600732028676	1
83	182036	121.600732028676	0
83	183358	122.600099517946	1
83	183360	122.600099517946	2
83	183365	122.600159517946	1
83	183365	122.600159517946	0
85	45	0.100407264768	4
