version 2
run BaseConfig-0-20170210-20:34:47-6812
attr configname BaseConfig
attr datetime 20170210-20:34:47
attr experiment BaseConfig
attr inifile omnetpp.ini
attr iterationvars ""
attr iterationvars2 $repetition=0
attr measurement ""
attr network Base
attr processid 6812
attr repetition 0
attr replication #0
attr resultdir results
attr runnumber 0
attr seedset 0
param *.configurator.addStaticRoutes false
param *.configurator.config "xml(\"<config><interface hosts='**' address='10.0.0.x' netmask='255.255.255.0'/><autoroute metric='errorRate'/></config>\")"
param *.configurator.optimizeRoutes false
param *.node*[*].wlan[*].mac.numSlots 2
param *.node*[*].wlan[*].macType "\"LMacLayer\""
param *.node*[*].wlan[*].radio.transmitter.bitrate 2Mbps
param *.node*[*].wlan[*].radio.transmitter.communicationRange 200m
param *.node*[*].wlan[*].radio.transmitter.detectionRange 0m
param *.node*[*].wlan[*].radio.transmitter.headerBitLength 100b
param *.node*[*].wlan[*].radio.transmitter.preambleDuration 0s
param *.node*[*].wlan[*].radioType "\"IdealRadio\""
param *.node*[*].wlan[*].typename "\"WirelessNic\""
param *.node*[*].wlan[0].radio.receiver.ignoreInterference true
param *.node*[*].wlan[0].radio.transmitter.interferenceRange 0m
param *.nodeMaster[*].numUdpApps 1
param *.nodeMaster[*].routingTable.netmaskRoutes "\"\""
param *.nodeMaster[0].mobility.initFromDisplayString false
param *.nodeMaster[0].mobility.initialX 200m
param *.nodeMaster[0].mobility.initialY 25m
param *.nodeMaster[0].mobilityType "\"StationaryMobility\""
param *.nodeMaster[0].udpApp[0].destAddresses "\"nodeMaster[1]\""
param *.nodeMaster[0].udpApp[0].destPort 5000
param *.nodeMaster[0].udpApp[0].messageLength 1000B
param *.nodeMaster[0].udpApp[0].packetName "\"UDPData\""
param *.nodeMaster[0].udpApp[0].sendInterval exponential(12ms)
param *.nodeMaster[0].udpApp[0].startTime 5s
param *.nodeMaster[0].udpApp[0].typename "\"UDPBasicApp\""
param *.nodeMaster[1].mobility.angle 90deg
param *.nodeMaster[1].mobility.initFromDisplayString false
param *.nodeMaster[1].mobility.initialX 300m
param *.nodeMaster[1].mobility.initialY 25m
param *.nodeMaster[1].mobility.speed 10mps
param *.nodeMaster[1].mobilityType "\"LinearMobility\""
param *.nodeMaster[1].udpApp[0].localPort 5000
param *.nodeMaster[1].udpApp[0].typename "\"UDPSink\""
param *.numMasters 2
param *.radioMediumType "\"IdealRadioMedium\""
param *.visualizer.dataLinkVisualizer.packetNameFilter "\"UDPData*\""
param *.visualizer.networkRouteVisualizer.packetNameFilter "\"UDPData*\""

vector 14  Base.nodeMaster[0].wlan[0].radio  radioMode:vector  ETV
attr interpolationmode  sample-hold
attr source  radioModeChanged
attr title  "Radio mode, vector"
vector 30  Base.nodeMaster[1].wlan[0].radio  radioMode:vector  ETV
attr interpolationmode  sample-hold
attr source  radioModeChanged
attr title  "Radio mode, vector"
vector 15  Base.nodeMaster[0].wlan[0].radio  receptionState:vector  ETV
attr interpolationmode  sample-hold
attr source  receptionStateChanged
attr title  "Radio reception state, vector"
vector 31  Base.nodeMaster[1].wlan[0].radio  receptionState:vector  ETV
attr interpolationmode  sample-hold
attr source  receptionStateChanged
attr title  "Radio reception state, vector"
vector 32  Base.nodeMaster[1].wlan[0].radio  transmissionState:vector  ETV
attr interpolationmode  sample-hold
attr source  transmissionStateChanged
attr title  "Radio transmission state, vector"
vector 16  Base.nodeMaster[0].wlan[0].radio  transmissionState:vector  ETV
attr interpolationmode  sample-hold
attr source  transmissionStateChanged
attr title  "Radio transmission state, vector"
vector 1  Base.nodeMaster[0].udpApp[0]  sentPk:vector(packetBytes)  ETV
attr interpolationmode  none
attr source  sentPk
attr title  "packets sent, vector(packetBytes)"
vector 4  Base.nodeMaster[0].udp  sentPk:vector(packetBytes)  ETV
attr interpolationmode  none
attr source  sentPk
attr title  "packets sent, vector(packetBytes)"
vector 25  Base.nodeMaster[1].networkLayer.arp  sentReq:vector  ETV
attr title  "ARP request sent, vector"
vector 10  Base.nodeMaster[0].networkLayer.arp  sentReply:vector  ETV
attr title  "ARP replies sent, vector"
vector 21  Base.nodeMaster[1].udp  rcvdPk:vector(packetBytes)  ETV
attr interpolationmode  none
attr source  rcvdPk
attr title  "packets received, vector(packetBytes)"
vector 22  Base.nodeMaster[1].udp  passedUpPk:vector(count)  ETV
attr interpolationmode  none
attr title  "packets passed up, vector(count)"
vector 17  Base.nodeMaster[1].udpApp[0]  rcvdPk:vector(packetBytes)  ETV
attr interpolationmode  none
attr source  rcvdPk
attr title  "packets received, vector(packetBytes)"
vector 18  Base.nodeMaster[1].udpApp[0]  endToEndDelay:vector  ETV
attr interpolationmode  none
attr source  messageAge(rcvdPk)
attr title  "end-to-end delay, vector"
attr unit  s
vector 19  Base.nodeMaster[1].udpApp[0]  rcvdPkSeqNo:vector  ETV
attr interpolationmode  none
attr source  appPkSeqNo(rcvdPk)
attr title  "received packet sequence number, vector"
1	3552	5	1000
1	3571	5.010782724662	1000
1	3574	5.02186140224	1000
1	3577	5.03130781592	1000
1	3580	5.03792039776	1000
1	3583	5.050378309368	1000
1	3586	5.057284539731	1000
1	3589	5.083966832795	1000
1	3615	5.123745780154	1000
1	3618	5.129549005413	1000
1	3621	5.148375758824	1000
1	3625	5.157407848184	1000
1	3628	5.167481042419	1000
1	3631	5.198660091449	1000
1	3634	5.199544315715	1000
1	3640	5.200638248028	1000
1	3643	5.200883355089	1000
1	3665	5.22233320705	1000
1	3668	5.240402618154	1000
1	3671	5.264886389249	1000
1	3694	5.311029051679	1000
1	3701	5.330291926364	1000
1	3704	5.339111499418	1000
1	3707	5.352742766719	1000
1	3710	5.368045499146	1000
1	3713	5.378513353487	1000
1	3716	5.387763369389	1000
1	3764	5.40481974555	1000
1	3768	5.406163099478	1000
1	3774	5.413863435902	1000
1	3778	5.416337875286	1000
1	3782	5.432361357501	1000
1	3786	5.43528993939	1000
1	3790	5.437033275718	1000
1	3794	5.441734525446	1000
1	3798	5.443680163319	1000
1	3802	5.446697466504	1000
1	3806	5.452560151096	1000
1	3810	5.480507111587	1000
1	3814	5.487680064509	1000
1	3818	5.499073999511	1000
1	3842	5.526990212251	1000
1	3846	5.52824494696	1000
1	3850	5.570247511173	1000
1	3854	5.582953520751	1000
1	3858	5.585202633543	1000
1	3862	5.590523481886	1000
1	3876	5.607191994163	1000
1	3881	5.61842473288	1000
1	3885	5.623142083568	1000
1	3889	5.623612281445	1000
1	3893	5.635682733507	1000
1	3897	5.673998093212	1000
1	3901	5.686692010172	1000
1	3905	5.698788241117	1000
1	3930	5.76310944532	1000
1	3934	5.773572435564	1000
1	3938	5.779993211689	1000
1	3942	5.787718583708	1000
1	3946	5.799440952597	1000
1	3960	5.804390967356	1000
1	3965	5.817868986974	1000
1	3969	5.822447657094	1000
1	3973	5.840527281093	1000
1	3977	5.876373559795	1000
1	3981	5.889408792366	1000
1	3985	5.889572767307	1000
1	3996	5.901273990517	1000
1	4013	5.914711762906	1000
1	4018	5.957594823374	1000
1	4022	5.982858678984	1000
1	4026	5.991409682104	1000
1	4030	5.992097605221	1000
1	4034	5.999296967861	1000
1	4038	5.999539249399	1000
1	4054	6.006533790065	1000
1	4059	6.053232631539	1000
1	4063	6.058577665082	1000
1	4067	6.066445420494	1000
1	4071	6.080447902813	1000
1	4088	6.105938749177	1000
1	4100	6.135985690574	1000
1	4104	6.138918435951	1000
1	4108	6.148912558144	1000
1	4112	6.172951444414	1000
1	4116	6.181486419661	1000
1	4131	6.211313407945	1000
1	4135	6.241797062041	1000
1	4139	6.242838307829	1000
1	4143	6.246742392815	1000
1	4147	6.246855201823	1000
1	4151	6.269023133635	1000
1	4155	6.281524501485	1000
1	4172	6.303619891143	1000
1	4182	6.307310103828	1000
1	4187	6.313396505307	1000
1	4192	6.323054074105	1000
1	4196	6.325217101129	1000
1	4200	6.330757871882	1000
1	4204	6.332657969957	1000
1	4208	6.342774966343	1000
1	4212	6.357373070184	1000
1	4216	6.361457231043	1000
1	4220	6.368272080885	1000
1	4224	6.385204373797	1000
1	4228	6.391256499476	1000
1	4243	6.418421302386	1000
1	4247	6.430645207146	1000
1	4251	6.457303289928	1000
1	4255	6.47097858549	1000
1	4259	6.478135138222	1000
1	4284	6.524251217221	1000
1	4288	6.525733536989	1000
1	4292	6.543215359692	1000
1	4296	6.549584029651	1000
1	4300	6.563087413853	1000
1	4304	6.566536339566	1000
1	4308	6.571045205675	1000
1	4323	6.611417651112	1000
1	4327	6.622071988037	1000
1	4331	6.635006006647	1000
1	4335	6.644148419903	1000
1	4339	6.647293106803	1000
1	4343	6.653320836382	1000
1	4347	6.664894279168	1000
1	4351	6.672623535668	1000
1	4355	6.680245068256	1000
1	4359	6.695353590463	1000
1	4363	6.699429567254	1000
1	4380	6.705233195493	1000
1	4392	6.721828945971	1000
1	4396	6.74711831723	1000
1	4400	6.748420882412	1000
1	4404	6.749583955467	1000
1	4408	6.754828291632	1000
1	4412	6.764458915461	1000
1	4416	6.764869356481	1000
1	4430	6.806539782232	1000
1	4434	6.811185343338	1000
1	4439	6.814186321278	1000
1	4443	6.816013844781	1000
1	4447	6.817241692159	1000
1	4451	6.866895409285	1000
1	4455	6.870514200244	1000
1	4459	6.879755122559	1000
1	4463	6.886884004539	1000
1	4467	6.888142586566	1000
1	4471	6.893354734437	1000
1	4485	6.90095628585	1000
1	4500	6.923033079271	1000
1	4504	6.951235206748	1000
1	4508	6.951694601703	1000
1	4512	6.96021361683	1000
1	4516	6.962404080053	1000
1	4520	6.98052196152	1000
1	4536	7.004545799466	1000
1	4541	7.010905834004	1000
1	4545	7.012715326126	1000
1	4549	7.013120767553	1000
1	4553	7.061718929619	1000
1	4557	7.067326200416	1000
1	4561	7.073864485954	1000
1	4565	7.07448743658	1000
1	4569	7.079946378718	1000
1	4573	7.08014759191	1000
1	4577	7.08329554362	1000
1	4584	7.100669072604	1000
1	4606	7.135284413629	1000
1	4610	7.151919909853	1000
1	4614	7.156895260365	1000
1	4618	7.164964786567	1000
1	4622	7.169932533639	1000
1	4626	7.172306487729	1000
1	4630	7.174556715143	1000
1	4634	7.182027883271	1000
1	4648	7.206940255996	1000
1	4653	7.241554787457	1000
1	4657	7.25280045207	1000
1	4661	7.263696020398	1000
1	4665	7.282065995113	1000
1	4669	7.290384392347	1000
1	4673	7.291004587217	1000
1	4690	7.305416238096	1000
1	4702	7.363965832752	1000
1	4706	7.367697446412	1000
1	4710	7.381336604355	1000
1	4724	7.405302667965	1000
1	4729	7.42197879273	1000
1	4733	7.462034004736	1000
1	4737	7.471729765377	1000
1	4741	7.474594799851	1000
1	4745	7.477613983208	1000
1	4749	7.480576294434	1000
1	4753	7.490692039739	1000
1	4757	7.497912187577	1000
1	4782	7.540085931743	1000
1	4786	7.553779586577	1000
1	4790	7.554849438057	1000
1	4794	7.555546306402	1000
1	4798	7.563575671086	1000
1	4802	7.58911971222	1000
1	4817	7.634080047586	1000
1	4821	7.645617322445	1000
1	4825	7.655001031096	1000
1	4829	7.678141352739	1000
1	4833	7.694484533431	1000
1	4850	7.702299302214	1000
1	4861	7.715863568765	1000
1	4866	7.727072292756	1000
1	4870	7.742122731997	1000
1	4874	7.74972989223	1000
1	4878	7.757035887195	1000
1	4882	7.785462905245	1000
1	4886	7.78723405764	1000
1	4890	7.790358274579	1000
1	4905	7.815961034029	1000
1	4909	7.844135159166	1000
1	4913	7.856589360072	1000
1	4917	7.86130023641	1000
1	4921	7.870100648488	1000
1	4925	7.870101312711	1000
1	4929	7.874586472237	1000
1	4933	7.881236522186	1000
1	4956	7.907225686356	1000
1	4962	7.920894378164	1000
1	4966	7.928202913517	1000
1	4970	7.936128950474	1000
1	4974	7.954784905728	1000
1	4978	7.957912587281	1000
1	4982	7.983385547128	1000
1	4986	7.987902699346	1000
1	5003	8.025787845843	1000
1	5007	8.03344610911	1000
1	5011	8.048366318445	1000
1	5015	8.05036881414	1000
1	5019	8.066100482558	1000
1	5023	8.078570950197	1000
1	5027	8.081473985934	1000
1	5031	8.083950281857	1000
1	5048	8.103727195935	1000
1	5060	8.120223355381	1000
1	5064	8.133704881376	1000
1	5068	8.137595270738	1000
1	5072	8.139902408028	1000
1	5076	8.15453040017	1000
1	5080	8.161994843199	1000
1	5084	8.184018004034	1000
1	5088	8.186768935936	1000
1	5092	8.188932227531	1000
1	5096	8.19053231501	1000
1	5110	8.205897407258	1000
1	5114	8.206268522757	1000
1	5119	8.22276063893	1000
1	5123	8.22392665107	1000
1	5127	8.226869028182	1000
1	5131	8.243468825776	1000
1	5135	8.259256340876	1000
1	5139	8.2598165938	1000
1	5143	8.262632463991	1000
1	5147	8.266690320569	1000
1	5151	8.280261342319	1000
1	5155	8.281042696696	1000
1	5159	8.290776388963	1000
1	5163	8.290887785256	1000
1	5187	8.31236766051	1000
1	5192	8.362239313657	1000
1	5196	8.376827599337	1000
1	5200	8.379232905678	1000
1	5204	8.387851863439	1000
1	5208	8.398274652217	1000
1	5223	8.416862792367	1000
1	5227	8.42805413463	1000
1	5231	8.431011124497	1000
1	5235	8.43829847596	1000
1	5239	8.463629141253	1000
1	5243	8.471762765278	1000
1	5247	8.486849609225	1000
1	5251	8.494839719065	1000
1	5274	8.509634284621	1000
1	5280	8.517907499075	1000
1	5284	8.540244678791	1000
1	5288	8.54283783339	1000
1	5292	8.560648743182	1000
1	5306	8.604564631151	1000
1	5311	8.628357618006	1000
1	5315	8.646550445164	1000
1	5319	8.696972758279	1000
1	5343	8.713780866643	1000
1	5347	8.713829542499	1000
1	5352	8.717597517276	1000
1	5356	8.723939124016	1000
1	5360	8.730647216056	1000
1	5364	8.734890374959	1000
1	5368	8.741042950671	1000
1	5372	8.742585913518	1000
1	5376	8.789957512729	1000
1	5380	8.796210458582	1000
1	5394	8.806316094216	1000
1	5399	8.811368013793	1000
1	5403	8.830031546117	1000
1	5407	8.836391085068	1000
1	5411	8.841732877141	1000
1	5415	8.847852767147	1000
1	5419	8.852164294009	1000
1	5423	8.870075879979	1000
1	5437	8.901354741607	1000
1	5450	8.90607677054	1000
1	5456	8.942735087888	1000
1	5460	8.942903646983	1000
1	5464	8.952052731194	1000
1	5468	8.956411637821	1000
1	5472	8.982144263395	1000
1	5476	8.985606415919	1000
1	5480	8.99918296113	1000
1	5497	9.019138550498	1000
1	5501	9.025929284998	1000
1	5505	9.042667714093	1000
1	5509	9.063903151972	1000
1	5513	9.069620894963	1000
1	5517	9.07083930397	1000
1	5521	9.074390126449	1000
1	5525	9.085146076909	1000
1	5529	9.092912173358	1000
1	5543	9.100943807822	1000
1	5556	9.108305076897	1000
1	5562	9.117228075198	1000
1	5566	9.12422916045	1000
1	5570	9.147207267542	1000
1	5574	9.154025313347	1000
1	5578	9.175069889087	1000
1	5582	9.183613985874	1000
1	5586	9.184698032803	1000
1	5590	9.197645155705	1000
1	5597	9.200422207368	1000
1	5609	9.222971628579	1000
1	5613	9.236695916026	1000
1	5617	9.239053458657	1000
1	5621	9.239922487978	1000
1	5625	9.24003931289	1000
1	5629	9.266752320763	1000
1	5633	9.26847135702	1000
1	5637	9.286596896235	1000
1	5662	9.31770627954	1000
1	5666	9.332777001352	1000
1	5670	9.340876413036	1000
1	5674	9.348483598554	1000
1	5678	9.374200794959	1000
1	5682	9.382243577478	1000
1	5686	9.388668429691	1000
1	5690	9.390963982242	1000
1	5694	9.398702884136	1000
1	5709	9.417073065163	1000
1	5713	9.426827845497	1000
1	5717	9.428918187421	1000
1	5721	9.430781614447	1000
1	5725	9.443361083706	1000
1	5729	9.45265919226	1000
1	5733	9.457387883123	1000
1	5737	9.459296027325	1000
1	5741	9.461386411924	1000
1	5745	9.463049453781	1000
1	5749	9.473428711094	1000
1	5753	9.474590280762	1000
1	5770	9.503558477928	1000
1	5774	9.504597881861	1000
1	5786	9.52393386585	1000
1	5790	9.549093501132	1000
1	5794	9.550270935404	1000
1	5798	9.556938842362	1000
1	5802	9.564630524905	1000
1	5806	9.575046164689	1000
1	5810	9.590161858736	1000
1	5814	9.590491163941	1000
1	5828	9.606265429118	1000
1	5833	9.623744151657	1000
1	5837	9.623861924894	1000
1	5841	9.628284920169	1000
1	5845	9.631466037386	1000
1	5849	9.639866345019	1000
1	5853	9.676743247692	1000
1	5857	9.68653547046	1000
1	5861	9.687766093176	1000
1	5865	9.699430223869	1000
1	5890	9.723285497327	1000
1	5894	9.725343960855	1000
1	5898	9.783945948739	1000
1	5902	9.785011937331	1000
1	5906	9.786202595649	1000
1	5910	9.798251209736	1000
1	5925	9.834032565624	1000
1	5929	9.867159819092	1000
1	5933	9.87427679826	1000
1	5937	9.88988684739	1000
1	5954	9.906155469556	1000
1	5964	9.910555931402	1000
1	5969	9.912086814288	1000
1	5974	9.919128039968	1000
1	5978	9.925094551404	1000
1	5982	9.934202128695	1000
1	5986	9.956601814337	1000
1	5990	9.965823365266	1000
1	5994	9.979506711789	1000
1	5998	9.990780735619	1000
1	6002	9.992024785659	1000
1	6006	9.993183281007	1000
1	6010	9.993874396009	1000
1	6014	9.994960485651	1000
1	6018	9.99820917834	1000
1	6035	10.02016368421	1000
1	6039	10.029030724449	1000
1	6043	10.037666463221	1000
1	6047	10.050258569212	1000
1	6051	10.059697278315	1000
1	6055	10.060093326136	1000
1	6059	10.070507668575	1000
1	6063	10.088200735272	1000
1	6067	10.093864352325	1000
1	6081	10.101968622767	1000
1	6096	10.149939384488	1000
1	6100	10.153306295602	1000
1	6104	10.158933351529	1000
1	6108	10.15949417035	1000
1	6112	10.163948111	1000
1	6116	10.185319327099	1000
1	6130	10.205061528224	1000
1	6135	10.217322148393	1000
1	6139	10.222830483523	1000
1	6143	10.22733122684	1000
1	6147	10.246755159637	1000
1	6151	10.247631779523	1000
1	6155	10.261439730638	1000
1	6159	10.267190282972	1000
1	6163	10.279249482681	1000
1	6187	10.31063717387	1000
1	6192	10.333722036718	1000
1	6196	10.341984203375	1000
1	6200	10.348684124846	1000
1	6204	10.369433560498	1000
1	6208	10.385516872042	1000
1	6212	10.392628761057	1000
1	6227	10.434276502023	1000
1	6231	10.439691367605	1000
1	6235	10.445772046172	1000
1	6239	10.461876283066	1000
1	6243	10.469030345763	1000
1	6257	10.502260079557	1000
1	6264	10.505828561892	1000
1	6275	10.511599100584	1000
1	6280	10.525932979906	1000
1	6284	10.553217465906	1000
1	6288	10.554765927944	1000
1	6292	10.558083600543	1000
1	6296	10.561192947614	1000
1	6300	10.569261542438	1000
1	6304	10.595916112636	1000
1	6318	10.601236125388	1000
1	6322	10.607074355065	1000
1	6328	10.636901928077	1000
1	6332	10.638351904832	1000
1	6336	10.650319491922	1000
1	6340	10.65202952727	1000
1	6344	10.65765507557	1000
1	6348	10.662361011045	1000
1	6352	10.676038555925	1000
1	6356	10.695086842681	1000
1	6373	10.703499388793	1000
1	6383	10.707715244172	1000
1	6389	10.733769954748	1000
1	6393	10.738973933012	1000
1	6398	10.755064753707	1000
1	6402	10.764790671473	1000
1	6406	10.767491181399	1000
1	6410	10.777033847815	1000
1	6414	10.785832551879	1000
1	6418	10.790979493908	1000
1	6422	10.791278631057	1000
1	6426	10.793212342003	1000
1	6430	10.794909059356	1000
1	6444	10.809677685568	1000
1	6449	10.824493844081	1000
1	6453	10.835847064976	1000
1	6457	10.849220563757	1000
1	6461	10.856340530576	1000
1	6465	10.870632308017	1000
1	6469	10.876336384053	1000
1	6473	10.877601137612	1000
1	6498	10.916304930617	1000
1	6502	10.917207232327	1000
1	6506	10.917441103842	1000
1	6510	10.964132024927	1000
1	6514	10.966060785414	1000
1	6518	10.969653021449	1000
1	6522	10.972565966697	1000
1	6526	10.982973470923	1000
1	6543	11.027606370654	1000
1	6547	11.031432463235	1000
1	6551	11.073541225847	1000
1	6555	11.07385116238	1000
1	6562	11.100126922955	1000
1	6583	11.114923987682	1000
1	6588	11.118828988288	1000
1	6592	11.145858902729	1000
1	6596	11.146181470163	1000
1	6600	11.157971810276	1000
1	6604	11.162769353546	1000
1	6618	11.203748452375	1000
1	6622	11.20596384285	1000
1	6627	11.233774155601	1000
1	6631	11.238578733979	1000
1	6635	11.264982685824	1000
1	6639	11.273603075847	1000
1	6643	11.282178686096	1000
1	6647	11.288047987023	1000
1	6651	11.297110528836	1000
1	6676	11.33185194024	1000
1	6680	11.358655618453	1000
1	6684	11.372221104833	1000
1	6688	11.384448543006	1000
1	6692	11.393987017039	1000
1	6696	11.397807733232	1000
1	6700	11.39973354252	1000
1	6716	11.423014121039	1000
1	6720	11.435110283525	1000
1	6724	11.439384272904	1000
1	6728	11.446783389966	1000
1	6732	11.447081388459	1000
1	6736	11.456880500725	1000
1	6740	11.462257556346	1000
1	6744	11.470640528419	1000
1	6748	11.472642077516	1000
1	6752	11.479293299197	1000
1	6775	11.507688782363	1000
1	6779	11.507791358587	1000
1	6785	11.549424084652	1000
1	6789	11.563512926294	1000
1	6793	11.564769473575	1000
1	6797	11.568875569874	1000
1	6801	11.578169771329	1000
1	6805	11.593624454198	1000
1	6809	11.599533750715	1000
1	6823	11.602624769111	1000
1	6827	11.609905318022	1000
1	6832	11.652847338732	1000
1	6836	11.6743834161	1000
1	6853	11.703935147333	1000
1	6865	11.717140769699	1000
1	6869	11.724112873565	1000
1	6873	11.73797857031	1000
1	6877	11.750528473823	1000
1	6881	11.750882855557	1000
1	6885	11.781121519883	1000
1	6889	11.79050413296	1000
1	6904	11.847220875322	1000
1	6908	11.853017511613	1000
1	6912	11.872737750435	1000
1	6916	11.880154378961	1000
1	6930	11.90119575638	1000
1	6943	11.910491121216	1000
1	6949	11.936683687887	1000
1	6953	11.962137541369	1000
1	6957	11.966912922105	1000
1	6961	11.973131656282	1000
1	6965	11.982571853668	1000
1	6969	11.99423644129	1000
1	6973	11.999960414301	1000
1	6989	12.009334439781	1000
1	6993	12.010880983534	1000
1	6998	12.024580369816	1000
1	7002	12.02864166341	1000
1	7006	12.02916879022	1000
1	7010	12.030649703878	1000
1	7014	12.032000063235	1000
1	7018	12.036566194618	1000
1	7022	12.039963063848	1000
1	7026	12.049890974931	1000
1	7030	12.078309807567	1000
1	7034	12.088722869282	1000
1	7038	12.099656618979	1000
1	7055	12.102919009042	1000
1	7066	12.113354393372	1000
1	7070	12.115246458006	1000
1	7075	12.120153468357	1000
1	7079	12.13194032657	1000
1	7083	12.137320278249	1000
1	7087	12.166348894979	1000
1	7091	12.19164225928	1000
1	7095	12.198475492646	1000
1	7109	12.207223573303	1000
1	7114	12.214948270973	1000
1	7118	12.21739369556	1000
1	7122	12.224239767417	1000
1	7126	12.226732206852	1000
1	7130	12.241804154037	1000
1	7134	12.250687180334	1000
1	7138	12.255325110519	1000
1	7142	12.255362362801	1000
1	7146	12.266277211259	1000
1	7150	12.278843518325	1000
1	7154	12.278905955919	1000
1	7179	12.321073701794	1000
1	7183	12.334156648832	1000
1	7187	12.33831979543	1000
1	7191	12.34100298413	1000
1	7195	12.372199063074	1000
1	7199	12.376638813231	1000
1	7203	12.38283325469	1000
1	7207	12.39486400359	1000
1	7222	12.421422730368	1000
1	7226	12.428223153886	1000
1	7230	12.459832730637	1000
1	7234	12.470592960676	1000
1	7238	12.477376024052	1000
1	7242	12.488156852449	1000
1	7246	12.493409725922	1000
1	7263	12.506250715798	1000
1	7275	12.518928007728	1000
1	7279	12.539620710354	1000
1	7283	12.545806080954	1000
1	7287	12.546265546527	1000
1	7291	12.596370869778	1000
1	7305	12.603504461978	1000
1	7310	12.636801517437	1000
1	7314	12.650179919686	1000
1	7318	12.653902273165	1000
1	7322	12.663865400926	1000
1	7336	12.701605371558	1000
1	7343	12.703050870771	1000
1	7353	12.706864102868	1000
1	7357	12.707891552397	1000
1	7363	12.725283414831	1000
1	7367	12.725546543399	1000
1	7371	12.727318125998	1000
1	7375	12.73094158604	1000
1	7379	12.755524583919	1000
1	7383	12.757897365134	1000
1	7387	12.764712017451	1000
1	7391	12.769430624895	1000
1	7395	12.779938290472	1000
1	7410	12.813012847402	1000
1	7414	12.846931135049	1000
1	7418	12.847578378526	1000
1	7422	12.858460735814	1000
1	7426	12.885146129603	1000
1	7443	12.903366559384	1000
1	7453	12.906218549837	1000
1	7459	12.923596303324	1000
1	7463	12.926111077153	1000
1	7467	12.953594163792	1000
1	7471	12.95370182044	1000
1	7475	12.954836621278	1000
1	7479	12.966421850874	1000
1	7483	12.972205601389	1000
1	7487	12.973424186636	1000
1	7504	13.023767410077	1000
1	7508	13.050995039116	1000
1	7512	13.054789884386	1000
1	7516	13.062480869464	1000
1	7520	13.070322308581	1000
1	7524	13.078843152729	1000
1	7549	13.119872790761	1000
1	7553	13.121136563791	1000
1	7557	13.121622059259	1000
1	7561	13.129555016869	1000
1	7565	13.136910624093	1000
1	7569	13.140129301212	1000
1	7573	13.140857392814	1000
1	7577	13.142443932012	1000
1	7581	13.165762338688	1000
1	7585	13.171885595461	1000
1	7589	13.177649097227	1000
1	7593	13.177915721051	1000
1	7597	13.183551017437	1000
1	7601	13.196553595697	1000
1	7615	13.208335014564	1000
1	7620	13.237774684662	1000
1	7624	13.2511440615	1000
1	7628	13.255844275979	1000
1	7632	13.260405704355	1000
1	7636	13.281905556386	1000
1	7640	13.299848329804	1000
1	7657	13.303809610133	1000
1	7669	13.318827717616	1000
1	7673	13.328722578294	1000
1	7677	13.334845688098	1000
1	7681	13.343927939905	1000
1	7685	13.344996971395	1000
1	7689	13.358144769838	1000
1	7693	13.358505763384	1000
1	7697	13.384915565876	1000
1	7701	13.398668502297	1000
1	7716	13.425300048558	1000
1	7720	13.425314548181	1000
1	7724	13.458531748873	1000
1	7728	13.496660916331	1000
1	7752	13.515755343491	1000
1	7757	13.57380639288	1000
1	7761	13.579072643005	1000
1	7775	13.601706024287	1000
1	7780	13.619377378638	1000
1	7784	13.634675596069	1000
1	7788	13.646717888724	1000
1	7792	13.651125106734	1000
1	7796	13.660372679464	1000
1	7800	13.664224651359	1000
1	7804	13.664329386115	1000
1	7808	13.664632519577	1000
1	7812	13.66650234981	1000
1	7816	13.675154978663	1000
1	7820	13.678177476079	1000
1	7824	13.68371218541	1000
1	7828	13.684392391984	1000
1	7852	13.713448431741	1000
1	7857	13.739397291054	1000
1	7861	13.766705930851	1000
1	7865	13.771550965736	1000
1	7869	13.786527184511	1000
1	7873	13.793208434248	1000
1	7877	13.797517582442	1000
1	7881	13.798393732968	1000
1	7895	13.80496868222	1000
1	7899	13.810867226525	1000
1	7904	13.812965090525	1000
1	7908	13.818138312452	1000
1	7912	13.819344378737	1000
1	7916	13.84392923466	1000
1	7920	13.8571459876	1000
1	7924	13.859714973936	1000
1	7928	13.889740869726	1000
1	7935	13.900141762574	1000
1	7955	13.907445194823	1000
1	7961	13.919783658642	1000
1	7965	13.923300420615	1000
1	7969	13.932911324809	1000
1	7973	13.934608750069	1000
1	7977	13.937294215335	1000
1	7981	13.945954120307	1000
1	7985	13.947185071426	1000
1	7989	13.970099731648	1000
1	7993	13.976140845033	1000
1	7997	13.979325284526	1000
1	8001	13.989891505786	1000
1	8017	14.006376136962	1000
1	8022	14.017644360204	1000
1	8026	14.028026148911	1000
1	8030	14.030263544521	1000
1	8034	14.044177736113	1000
1	8038	14.089341905635	1000
1	8052	14.100598003022	1000
1	8059	14.105374735082	1000
1	8071	14.124850615287	1000
1	8075	14.146571947425	1000
1	8079	14.153011412421	1000
1	8083	14.159457617266	1000
1	8087	14.192560353141	1000
1	8101	14.207929909018	1000
1	8105	14.208331366128	1000
1	8110	14.214991746832	1000
1	8114	14.216174940834	1000
1	8118	14.262277936476	1000
1	8122	14.272551930365	1000
1	8126	14.2849349788	1000
1	8130	14.29037439245	1000
1	8147	14.303595535458	1000
1	8158	14.313774737176	1000
1	8163	14.331657726216	1000
1	8167	14.359301008736	1000
1	8171	14.365517357421	1000
1	8175	14.392602403121	1000
1	8179	14.393409966727	1000
1	8194	14.407290358203	1000
1	8199	14.410443423122	1000
1	8203	14.419732287634	1000
1	8207	14.437527800007	1000
1	8211	14.454000488077	1000
1	8215	14.469337523604	1000
1	8219	14.477251557205	1000
1	8223	14.4798399553	1000
1	8227	14.482601464518	1000
1	8231	14.491802169104	1000
1	8235	14.498713244778	1000
1	8260	14.542974908484	1000
1	8264	14.547269140552	1000
1	8268	14.548256291338	1000
1	8272	14.563830330168	1000
1	8286	14.608302217816	1000
1	8291	14.62658626118	1000
1	8295	14.62999126241	1000
1	8299	14.630438215518	1000
1	8303	14.636707366438	1000
1	8307	14.661927689447	1000
1	8311	14.668715164499	1000
1	8315	14.672725509479	1000
1	8332	14.705581789022	1000
1	8344	14.723336690718	1000
1	8348	14.734666385743	1000
1	8352	14.734698553643	1000
1	8356	14.76687049472	1000
1	8360	14.780314803713	1000
1	8364	14.783365259666	1000
1	8368	14.783666034717	1000
1	8372	14.78375599085	1000
1	8387	14.815229897113	1000
1	8391	14.829406761896	1000
1	8395	14.844062124019	1000
1	8399	14.854940139346	1000
1	8403	14.864186587195	1000
1	8407	14.871482966704	1000
1	8411	14.882484253164	1000
1	8415	14.89522289296	1000
1	8422	14.90082535909	1000
1	8443	14.914065262722	1000
1	8448	14.921390465238	1000
1	8452	14.922457315937	1000
1	8456	14.925643256449	1000
1	8460	14.926661741135	1000
1	8464	14.93132534393	1000
1	8468	14.942665559817	1000
1	8472	14.948164854574	1000
1	8476	14.963710334541	1000
1	8480	14.977310993665	1000
1	8484	14.979186505375	1000
1	8488	14.981394192699	1000
1	8492	14.982193454346	1000
1	8496	14.985877182937	1000
1	8500	14.991016279283	1000
1	8504	14.992124929508	1000
1	8520	15.003187480607	1000
1	8525	15.018224417735	1000
1	8529	15.020277039563	1000
1	8533	15.02530215179	1000
1	8537	15.040892543779	1000
1	8541	15.053955937856	1000
1	8545	15.077083591823	1000
1	8549	15.086789073338	1000
1	8553	15.087102200918	1000
1	8557	15.087810549552	1000
1	8561	15.088811925763	1000
1	8565	15.097548200359	1000
1	8589	15.114431366902	1000
1	8593	15.114825033559	1000
1	8598	15.122145883054	1000
1	8602	15.143047651312	1000
1	8606	15.156301012972	1000
1	8610	15.16577473211	1000
1	8614	15.176439180441	1000
1	8628	15.203655065131	1000
1	8633	15.213925255788	1000
1	8637	15.220499680116	1000
1	8641	15.235066006873	1000
1	8645	15.240369205139	1000
1	8649	15.283673065342	1000
1	8672	15.308370159474	1000
1	8676	15.310414687778	1000
1	8682	15.324243620011	1000
1	8686	15.324659596442	1000
1	8690	15.35063512255	1000
1	8694	15.372995754356	1000
1	8698	15.381559088195	1000
1	8702	15.383198394511	1000
1	8706	15.394856009954	1000
1	8710	15.398138788301	1000
1	8724	15.410098099651	1000
1	8729	15.424298173931	1000
1	8733	15.425646190099	1000
1	8737	15.433423034415	1000
1	8741	15.443993925822	1000
1	8745	15.447504262697	1000
1	8749	15.450197149139	1000
1	8753	15.462385701216	1000
1	8757	15.479548333395	1000
1	8761	15.484887115023	1000
1	8765	15.499696075344	1000
1	8788	15.51031867748	1000
1	8794	15.530221798123	1000
1	8798	15.532960757601	1000
1	8802	15.552059742958	1000
1	8806	15.555777368573	1000
1	8810	15.560027751942	1000
1	8824	15.605922587819	1000
1	8828	15.606487857869	1000
1	8832	15.609012860708	1000
1	8837	15.617842380632	1000
1	8841	15.623501529277	1000
1	8845	15.626827970539	1000
1	8849	15.640673135699	1000
1	8853	15.653949372479	1000
1	8857	15.693754181012	1000
1	8882	15.719058190795	1000
1	8886	15.790653019192	1000
1	8890	15.79606273692	1000
1	8894	15.796618210991	1000
1	8905	15.801339999755	1000
1	8912	15.809583947386	1000
1	8917	15.811851689587	1000
1	8921	15.812918661935	1000
1	8925	15.820152392831	1000
1	8929	15.852529389346	1000
1	8933	15.869814088606	1000
1	8937	15.874292725346	1000
1	8944	15.900629929931	1000
1	8965	15.914969067531	1000
1	8970	15.922437843823	1000
1	8974	15.926126251096	1000
1	8978	15.936409328314	1000
1	8982	15.939010808623	1000
1	8986	15.955232673656	1000
1	8990	15.988394390943	1000
1	9006	16.001314294729	1000
1	9011	16.016805847196	1000
1	9015	16.018962379907	1000
1	9019	16.035512964116	1000
1	9023	16.043767461374	1000
1	9027	16.04486472515	1000
1	9031	16.050726596587	1000
1	9035	16.066414093207	1000
1	9039	16.076773075738	1000
1	9043	16.081163093808	1000
1	9068	16.135010674743	1000
1	9072	16.145251362978	1000
1	9076	16.180045346822	1000
1	9080	16.189890957637	1000
1	9084	16.199870673069	1000
1	9091	16.200500986153	1000
1	9102	16.201819819455	1000
1	9107	16.213256460569	1000
1	9111	16.22904129048	1000
1	9115	16.232398372109	1000
1	9119	16.272281117626	1000
1	9123	16.288503279909	1000
1	9127	16.291765162137	1000
1	9144	16.30417323201	1000
1	9154	16.309154988744	1000
1	9160	16.324755540854	1000
1	9164	16.33529748674	1000
1	9168	16.352256724523	1000
1	9172	16.355732352898	1000
1	9176	16.38804355131	1000
1	9191	16.447587944249	1000
1	9195	16.449745113307	1000
1	9199	16.458376674574	1000
1	9203	16.48227175247	1000
1	9207	16.487398723866	1000
1	9211	16.490733680428	1000
1	9234	16.506493116692	1000
1	9240	16.552033504697	1000
1	9244	16.560441557203	1000
1	9248	16.56642102301	1000
1	9252	16.572390662739	1000
1	9256	16.591378750542	1000
1	9270	16.606071346974	1000
1	9275	16.610680205834	1000
1	9279	16.654750920857	1000
1	9283	16.681411887287	1000
1	9287	16.695896741218	1000
1	9304	16.702871228855	1000
1	9308	16.705658893225	1000
1	9320	16.718781125751	1000
1	9324	16.735604849115	1000
1	9328	16.746723292041	1000
1	9332	16.75493631934	1000
1	9336	16.756443643532	1000
1	9340	16.774874021921	1000
1	9344	16.782991660479	1000
1	9358	16.806090890531	1000
1	9362	16.807828684145	1000
1	9367	16.848088256697	1000
1	9371	16.856196684486	1000
1	9375	16.857097898536	1000
1	9379	16.861041843228	1000
1	9383	16.888986553874	1000
1	9387	16.893864464685	1000
1	9412	16.935974439995	1000
1	9416	16.943020904451	1000
1	9420	16.948509199388	1000
1	9424	16.967223814769	1000
1	9428	16.974777309585	1000
1	9432	16.975720200308	1000
1	9436	16.996902141663	1000
1	9453	17.015656360316	1000
1	9457	17.024339461533	1000
1	9461	17.024456227604	1000
1	9465	17.026215377115	1000
1	9469	17.041152522061	1000
1	9473	17.051876824762	1000
1	9477	17.066326278683	1000
1	9481	17.07169925798	1000
1	9485	17.083610087394	1000
1	9489	17.09045756049	1000
1	9493	17.096866712346	1000
1	9510	17.103301102628	1000
1	9514	17.103692070471	1000
1	9518	17.104447284253	1000
1	9530	17.127158380202	1000
1	9534	17.141428397096	1000
1	9538	17.144571192183	1000
1	9542	17.146079674848	1000
1	9546	17.146578420274	1000
1	9550	17.154418781881	1000
1	9554	17.165058607496	1000
1	9558	17.192446814276	1000
1	9573	17.222796391556	1000
1	9577	17.228269492745	1000
1	9581	17.26032538879	1000
1	9585	17.269795454779	1000
1	9589	17.280037834823	1000
1	9593	17.282399296416	1000
1	9597	17.283876994499	1000
1	9601	17.287239532236	1000
1	9605	17.288832160594	1000
1	9609	17.291864445117	1000
1	9623	17.301177923248	1000
1	9638	17.325500566733	1000
1	9642	17.344516795215	1000
1	9646	17.344911490453	1000
1	9650	17.359301598806	1000
1	9654	17.359876661811	1000
1	9670	17.434605847827	1000
1	9674	17.453001924696	1000
1	9678	17.456159855455	1000
1	9682	17.464242584941	1000
1	9686	17.480598264921	1000
1	9702	17.502574740682	1000
1	9707	17.505693324107	1000
1	9713	17.507419060364	1000
1	9719	17.53951617309	1000
1	9723	17.552847853246	1000
1	9727	17.577925139898	1000
1	9731	17.581098714641	1000
1	9735	17.582751895164	1000
1	9739	17.58792729515	1000
1	9743	17.591422756951	1000
1	9747	17.592329194482	1000
1	9761	17.604739249347	1000
1	9765	17.608210841285	1000
1	9770	17.615389783869	1000
1	9774	17.619470978867	1000
1	9778	17.649959900113	1000
1	9782	17.65713850861	1000
1	9786	17.682567348043	1000
1	9790	17.683107521813	1000
1	9794	17.692316848889	1000
1	9798	17.699550615742	1000
1	9815	17.704287013333	1000
1	9821	17.708570360968	1000
1	9826	17.712294208344	1000
1	9830	17.714964875988	1000
1	9835	17.72310711057	1000
1	9839	17.728187075443	1000
1	9843	17.733003566746	1000
1	9847	17.733825574927	1000
1	9851	17.733993119746	1000
1	9855	17.763111426455	1000
1	9859	17.769519706544	1000
1	9863	17.783082596611	1000
1	9867	17.79030909614	1000
1	9871	17.792996387665	1000
1	9886	17.82481787517	1000
1	9890	17.826388230399	1000
1	9894	17.834267126109	1000
1	9898	17.835421664039	1000
1	9902	17.838546764873	1000
1	9906	17.852424774067	1000
1	9910	17.861393798173	1000
1	9914	17.870977344138	1000
1	9918	17.892399913549	1000
1	9922	17.893152356416	1000
1	9943	17.921377027037	1000
1	9947	17.934017054399	1000
1	9951	17.946307151747	1000
1	9955	17.946675238255	1000
1	9959	17.975580271143	1000
1	9963	17.975920842528	1000
1	9967	17.978382246234	1000
1	9983	18.005532375879	1000
1	9987	18.007158469811	1000
1	9992	18.013248207779	1000
1	9996	18.030376064155	1000
1	10000	18.040308486016	1000
1	10004	18.05604175158	1000
1	10008	18.058612642642	1000
1	10012	18.064986052871	1000
1	10016	18.073265195733	1000
1	10020	18.076615788192	1000
1	10041	18.150706153067	1000
1	10045	18.164050739703	1000
1	10049	18.189877926094	1000
1	10053	18.195867987135	1000
1	10068	18.226925591131	1000
1	10072	18.230403832358	1000
1	10076	18.232465880615	1000
1	10080	18.251015555122	1000
1	10084	18.294365969641	1000
1	10088	18.295134491858	1000
1	10092	18.296398853767	1000
1	10105	18.300989764256	1000
1	10115	18.309947097926	1000
1	10121	18.32456685124	1000
1	10125	18.361927683406	1000
1	10129	18.363431989758	1000
1	10133	18.36871853912	1000
1	10137	18.372434137829	1000
1	10141	18.392200969865	1000
1	10145	18.394344158382	1000
1	10160	18.419475367753	1000
1	10164	18.437306643955	1000
1	10168	18.463137877791	1000
1	10185	18.504888208166	1000
1	10192	18.515112345895	1000
1	10197	18.522471352153	1000
1	10201	18.530435124256	1000
1	10205	18.557539428546	1000
1	10209	18.560348113101	1000
1	10213	18.565994886816	1000
1	10217	18.578292525755	1000
1	10221	18.593399277817	1000
1	10225	18.594095558991	1000
1	10240	18.639980265875	1000
1	10244	18.644812029451	1000
1	10248	18.647581051495	1000
1	10252	18.65198475003	1000
1	10268	18.702200553756	1000
1	10276	18.715452876633	1000
1	10281	18.718829745445	1000
1	10285	18.72152391959	1000
1	10289	18.722458098058	1000
1	10293	18.727873957085	1000
1	10297	18.748704394455	1000
1	10301	18.752570438857	1000
1	10305	18.758086155194	1000
1	10309	18.775283602177	1000
1	10313	18.789570235738	1000
1	10317	18.795951426919	1000
1	10321	18.798105531271	1000
1	10336	18.825011627156	1000
1	10340	18.835281362999	1000
1	10344	18.838842324428	1000
1	10348	18.842084989622	1000
1	10352	18.849223863634	1000
1	10356	18.855416880342	1000
1	10360	18.856273291669	1000
1	10364	18.890679764541	1000
1	10383	18.909234738664	1000
1	10389	18.917469944554	1000
1	10393	18.922220329624	1000
1	10397	18.924623365083	1000
1	10401	18.926805794788	1000
1	10405	18.930106782553	1000
1	10409	18.933096449295	1000
1	10413	18.947938556452	1000
1	10417	18.965555575406	1000
1	10421	18.97097648188	1000
1	10425	18.973060064365	1000
1	10429	18.985478737526	1000
1	10433	18.990335279909	1000
1	10450	19.022638307601	1000
1	10454	19.041289807034	1000
1	10458	19.094124779725	1000
1	10479	19.120327807122	1000
1	10483	19.120391757703	1000
1	10487	19.12113854431	1000
1	10491	19.148554573977	1000
1	10495	19.150074023309	1000
1	10499	19.16093774741	1000
1	10503	19.166196479693	1000
1	10507	19.166608739779	1000
1	10511	19.167646893097	1000
1	10515	19.185067515379	1000
1	10529	19.207239994823	1000
1	10534	19.212656042023	1000
1	10538	19.216056696225	1000
1	10542	19.224221614455	1000
1	10546	19.226204117049	1000
1	10550	19.237718896791	1000
1	10554	19.253861083734	1000
1	10558	19.268468437847	1000
1	10565	19.300741470508	1000
1	10582	19.311788476385	1000
1	10587	19.322640745907	1000
1	10591	19.338667287518	1000
1	10595	19.354193344797	1000
1	10599	19.358121597189	1000
1	10603	19.377271208674	1000
1	10617	19.405447189505	1000
1	10622	19.423584514599	1000
1	10626	19.446300692601	1000
1	10630	19.468964288078	1000
1	10634	19.472378418059	1000
1	10638	19.493435522335	1000
1	10657	19.508667522332	1000
1	10662	19.513355010347	1000
1	10667	19.526830465629	1000
1	10671	19.54025100099	1000
1	10675	19.559706440222	1000
1	10679	19.559707167084	1000
1	10683	19.572209749871	1000
1	10687	19.585619224291	1000
1	10691	19.595955549289	1000
1	10706	19.613982902184	1000
1	10710	19.615842113972	1000
1	10714	19.620144672987	1000
1	10718	19.637065204476	1000
1	10722	19.642104613011	1000
1	10726	19.653210086886	1000
1	10730	19.664865152454	1000
1	10734	19.66912150956	1000
1	10738	19.676535968985	1000
1	10742	19.690390511929	1000
1	10761	19.708219065141	1000
1	10767	19.720721923867	1000
1	10771	19.726569949517	1000
1	10775	19.726954955363	1000
1	10779	19.754707539508	1000
1	10783	19.754820572387	1000
1	10787	19.756116806939	1000
1	10791	19.77446627375	1000
1	10795	19.775220174134	1000
1	10808	19.801257437425	1000
1	10814	19.828663888747	1000
1	10818	19.829355202156	1000
1	10822	19.865535616219	1000
1	10826	19.874205600243	1000
1	10830	19.874213901718	1000
1	10834	19.883105945144	1000
1	10838	19.888853903649	1000
1	10859	19.93954174907	1000
1	10863	19.943164553244	1000
1	10867	19.950263488809	1000
1	10871	19.951457318914	1000
1	10875	19.97656991717	1000
1	10879	19.977029000033	1000
1	10883	19.9947300446	1000
1	10887	19.99864427246	1000
1	10896	20.000442059588	1000
1	10908	20.014947502253	1000
1	10912	20.026701383228	1000
1	10916	20.027136146382	1000
1	10920	20.033031738165	1000
1	10924	20.042766235297	1000
1	10928	20.04805511346	1000
1	10932	20.060042006699	1000
1	10936	20.067493772236	1000
1	10940	20.079966436505	1000
1	10944	20.091251492559	1000
1	10948	20.093943481988	1000
1	10952	20.098890474476	1000
1	10969	20.103226466346	1000
1	10977	20.150419175162	1000
1	10981	20.153774215022	1000
1	10985	20.156915355538	1000
1	10989	20.157625613911	1000
1	10993	20.19320644628	1000
1	11006	20.200961681719	1000
1	11012	20.25511510551	1000
1	11016	20.271736315787	1000
1	11020	20.272154468346	1000
1	11024	20.291203379489	1000
1	11045	20.319931029109	1000
1	11049	20.335900894761	1000
1	11053	20.339610713376	1000
1	11057	20.341496674444	1000
1	11061	20.344085597745	1000
1	11076	20.403435050075	1000
1	11081	20.411753329974	1000
1	11085	20.479754156653	1000
1	11089	20.49265070533	1000
1	11110	20.524635488559	1000
1	11114	20.537009818728	1000
1	11118	20.540407361026	1000
1	11122	20.544947785511	1000
1	11126	20.572941701318	1000
1	11140	20.603568711761	1000
1	11145	20.615756751668	1000
1	11149	20.616993057286	1000
1	11153	20.620621101244	1000
1	11157	20.622972253371	1000
1	11161	20.634584953828	1000
1	11165	20.636597312411	1000
1	11169	20.643573308764	1000
1	11173	20.65322065428	1000
1	11177	20.656323893517	1000
1	11181	20.659416039409	1000
1	11185	20.663142467181	1000
1	11189	20.690425481476	1000
1	11196	20.70040411301	1000
1	11206	20.702017619305	1000
1	11214	20.704770749563	1000
1	11222	20.737916649344	1000
1	11226	20.74352038098	1000
1	11230	20.748696923086	1000
1	11234	20.756315319726	1000
1	11238	20.762329009185	1000
1	11242	20.767283987693	1000
1	11246	20.772761551061	1000
1	11250	20.796921682131	1000
1	11265	20.81116031143	1000
1	11269	20.811375452643	1000
1	11273	20.849458186235	1000
1	11277	20.870276291212	1000
1	11290	20.900745036534	1000
1	11298	20.904049272863	1000
1	11306	20.918044116243	1000
1	11310	20.963187690553	1000
1	11314	20.96481872455	1000
1	11318	20.981296330265	1000
1	11322	20.984629606194	1000
1	11326	20.993190299614	1000
1	11330	20.996682121064	1000
1	11346	21.009246829786	1000
1	11351	21.023208068894	1000
1	11355	21.02373067659	1000
1	11359	21.033292446582	1000
1	11363	21.045659363942	1000
1	11367	21.055798826857	1000
1	11371	21.059635961382	1000
1	11375	21.062630185634	1000
1	11379	21.064631096288	1000
1	11383	21.081750156265	1000
1	11396	21.100634278475	1000
1	11406	21.110225380201	1000
1	11412	21.119345176154	1000
1	11416	21.12472138588	1000
1	11420	21.125667957676	1000
1	11424	21.175312706616	1000
1	11428	21.199781340608	1000
1	11441	21.202541834904	1000
1	11446	21.209179382776	1000
1	11451	21.221863765626	1000
1	11455	21.23151662292	1000
1	11459	21.23498802498	1000
1	11463	21.239687700194	1000
1	11467	21.258311049375	1000
1	11471	21.260438351626	1000
1	11475	21.261459571787	1000
1	11479	21.270098018096	1000
1	11483	21.273100029648	1000
1	11487	21.276272562494	1000
1	11491	21.285229027839	1000
1	11495	21.293511650676	1000
1	11516	21.325077783096	1000
1	11520	21.333478618845	1000
1	11524	21.336102076552	1000
1	11528	21.336431495724	1000
1	11532	21.337486695868	1000
1	11536	21.344020477139	1000
1	11540	21.352756356621	1000
1	11544	21.3652344988	1000
1	11548	21.372880392297	1000
1	11552	21.385762719877	1000
1	11556	21.385771326492	1000
1	11560	21.385950021558	1000
1	11574	21.405428427275	1000
1	11579	21.416842185439	1000
1	11583	21.433756350545	1000
1	11587	21.439461917372	1000
1	11591	21.450485449502	1000
1	11595	21.458085207616	1000
1	11599	21.47359082495	1000
1	11603	21.474823986992	1000
1	11607	21.476323830573	1000
1	11611	21.496457944037	1000
1	11615	21.497794118333	1000
1	11636	21.537856446516	1000
1	11640	21.55282065812	1000
1	11644	21.561728568012	1000
1	11648	21.587799678657	1000
1	11663	21.611681921224	1000
1	11667	21.629604566947	1000
1	11671	21.648756483215	1000
1	11675	21.667007593611	1000
1	11679	21.67712703378	1000
1	11683	21.692699889097	1000
1	11690	21.700030947574	1000
1	11708	21.719477891381	1000
1	11712	21.735806871596	1000
1	11716	21.759951997522	1000
1	11720	21.791440333147	1000
1	11724	21.791605112287	1000
1	11728	21.799461959044	1000
1	11743	21.829350926277	1000
1	11747	21.8315859413	1000
1	11751	21.832066087967	1000
1	11755	21.83881458097	1000
1	11759	21.845586422759	1000
1	11763	21.854677246315	1000
1	11767	21.862310451644	1000
1	11771	21.876678145244	1000
1	11775	21.886044125916	1000
1	11779	21.895423682648	1000
1	11798	21.908626723328	1000
1	11804	21.917494255802	1000
1	11808	21.918263993312	1000
1	11812	21.938272541812	1000
1	11816	21.942322634574	1000
1	11820	21.970153360495	1000
1	11824	21.982487864092	1000
1	11828	21.999808272596	1000
1	11844	22.004304785761	1000
1	11848	22.00634141652	1000
1	11853	22.018989686966	1000
1	11857	22.023922917667	1000
1	11861	22.030673303099	1000
1	11865	22.053385766805	1000
1	11869	22.053656783069	1000
1	11873	22.072633151625	1000
1	11890	22.10360362209	1000
1	11897	22.112072338874	1000
1	11901	22.113940668019	1000
1	11906	22.119995500475	1000
1	11910	22.121931263881	1000
1	11914	22.123502752164	1000
1	11918	22.163364619737	1000
1	11922	22.167703513133	1000
1	11926	22.17142559343	1000
1	11930	22.189118809426	1000
1	11934	22.19813626317	1000
1	11949	22.222898191263	1000
1	11970	22.328867386926	1000
1	11974	22.329871682033	1000
1	11978	22.331724588518	1000
1	11982	22.366122751686	1000
1	11986	22.368971206557	1000
1	11990	22.369522851586	1000
1	11994	22.393147280427	1000
1	11998	22.394064332999	1000
1	12013	22.433256338227	1000
1	12017	22.450395697996	1000
1	12021	22.456614379369	1000
1	12025	22.457422405085	1000
1	12029	22.472343890642	1000
1	12033	22.482466905815	1000
1	12037	22.484436711092	1000
1	12041	22.496281811275	1000
1	12060	22.509132644887	1000
1	12066	22.54402946734	1000
1	12070	22.551375690079	1000
1	12074	22.559996983819	1000
1	12078	22.588699005345	1000
1	12082	22.592093765001	1000
1	12086	22.595761417098	1000
1	12101	22.627691541612	1000
1	12105	22.633301840847	1000
1	12109	22.651023410599	1000
1	12113	22.656006742361	1000
1	12117	22.658959513444	1000
1	12121	22.663391757938	1000
1	12125	22.671877876861	1000
1	12129	22.674886845296	1000
1	12133	22.690598956522	1000
1	12137	22.691533475913	1000
1	12150	22.701204302004	1000
1	12161	22.711519164862	1000
1	12165	22.716070961267	1000
1	12170	22.716616803566	1000
1	12174	22.725233708858	1000
1	12178	22.726025147753	1000
1	12182	22.748636617305	1000
1	12186	22.784435124896	1000
1	12190	22.788129058612	1000
1	12194	22.789411719375	1000
1	12198	22.793466392486	1000
1	12202	22.796093914507	1000
1	12206	22.796201241021	1000
1	12221	22.82283135696	1000
1	12225	22.84150299425	1000
1	12229	22.845832535602	1000
1	12233	22.858254337742	1000
1	12240	22.900498283532	1000
1	12258	22.91897470925	1000
1	12262	22.935561047634	1000
1	12266	22.946787467647	1000
1	12270	22.952330763545	1000
1	12274	22.962874073585	1000
1	12278	22.964927540021	1000
1	12282	22.96538948764	1000
1	12286	22.971375314308	1000
1	12290	22.973383987329	1000
1	12294	22.975372992558	1000
1	12298	22.983216192052	1000
1	12302	22.985552840282	1000
1	12306	22.988228749313	1000
1	12310	22.998500666399	1000
1	12326	23.005829806501	1000
1	12331	23.021025051595	1000
1	12335	23.028487256275	1000
1	12339	23.032893269286	1000
1	12343	23.045016128399	1000
1	12347	23.052924040716	1000
1	12351	23.098499277079	1000
1	12364	23.101915792379	1000
1	12375	23.115405090463	1000
1	12380	23.16786568528	1000
1	12384	23.199108892367	1000
1	12397	23.202602220485	1000
1	12403	23.217855078018	1000
1	12407	23.223718730433	1000
1	12411	23.240818658767	1000
1	12415	23.24243073946	1000
1	12419	23.285816415376	1000
1	12423	23.287759565136	1000
1	12439	23.302188689729	1000
1	12446	23.307275554423	1000
1	12450	23.309758917622	1000
1	12455	23.315707292495	1000
1	12461	23.358342616266	1000
1	12465	23.35980547382	1000
1	12469	23.360209318116	1000
1	12473	23.379291832418	1000
1	12477	23.39986912715	1000
1	12491	23.407850723343	1000
1	12496	23.44676015426	1000
1	12500	23.458617363437	1000
1	12504	23.469345780419	1000
1	12508	23.49081885242	1000
1	12512	23.490832254098	1000
1	12516	23.493460576232	1000
1	12520	23.497522245419	1000
1	12537	23.50462530166	1000
1	12543	23.50621117347	1000
1	12549	23.529780940906	1000
1	12553	23.544870360798	1000
1	12557	23.562558586595	1000
1	12561	23.563705098769	1000
1	12565	23.572058009859	1000
1	12569	23.573588266957	1000
1	12573	23.577431400659	1000
1	12587	23.607822565032	1000
1	12592	23.625596564052	1000
1	12596	23.643340470659	1000
1	12600	23.660125065324	1000
1	12604	23.66634820048	1000
1	12608	23.667439846334	1000
1	12612	23.699502265081	1000
1	12632	23.713727763776	1000
1	12637	23.731801772024	1000
1	12641	23.750622160834	1000
1	12645	23.771424551356	1000
1	12649	23.777206391899	1000
1	12663	23.8099664814	1000
1	12668	23.817575699201	1000
1	12672	23.820495235379	1000
1	12676	23.829169234399	1000
1	12680	23.841563025996	1000
1	12684	23.846180739018	1000
1	12688	23.847536161356	1000
1	12692	23.854860929781	1000
1	12696	23.862889393894	1000
1	12700	23.880599072805	1000
1	12704	23.881501224628	1000
1	12708	23.894820826597	1000
1	12712	23.896742707276	1000
1	12731	23.910457797979	1000
1	12736	23.915480095722	1000
1	12741	23.937858718133	1000
1	12745	23.945172582793	1000
1	12749	23.948366894118	1000
1	12753	23.96561919485	1000
1	12770	24.011782159587	1000
1	12774	24.023831931993	1000
1	12778	24.025564309444	1000
1	12782	24.028307818295	1000
1	12786	24.034037697396	1000
1	12790	24.04227361165	1000
1	12794	24.042517773888	1000
1	12798	24.050404283185	1000
1	12802	24.058133936271	1000
1	12806	24.065003859815	1000
1	12810	24.069433303994	1000
1	12829	24.107175677508	1000
1	12835	24.12033523714	1000
1	12839	24.138928249571	1000
1	12843	24.147626262983	1000
1	12847	24.15309751794	1000
1	12851	24.158665070085	1000
1	12855	24.162497345648	1000
1	12859	24.171998730187	1000
1	12863	24.195099780644	1000
1	12867	24.195579677488	1000
1	12882	24.212277675175	1000
1	12886	24.23065428749	1000
1	12890	24.236679136316	1000
1	12894	24.253020431769	1000
1	12898	24.258937971007	1000
1	12902	24.263484793314	1000
1	12906	24.266706917254	1000
1	12910	24.286249857415	1000
1	12914	24.286604002379	1000
1	12918	24.289883006466	1000
1	12922	24.294186452565	1000
1	12939	24.305413075995	1000
1	12946	24.312070772794	1000
1	12951	24.325125032343	1000
1	12955	24.326977700835	1000
1	12959	24.332026847564	1000
1	12963	24.341069520044	1000
1	12967	24.352761819555	1000
1	12971	24.356531786347	1000
1	12975	24.360164037385	1000
1	12979	24.360733967576	1000
1	12983	24.381493622944	1000
1	12987	24.381833753689	1000
1	12991	24.387201106306	1000
1	12995	24.389581147452	1000
1	12999	24.397941412409	1000
1	13014	24.445281505023	1000
1	13018	24.451838634827	1000
1	13022	24.462410532554	1000
1	13026	24.473144030236	1000
1	13030	24.473848283541	1000
1	13034	24.489172728203	1000
1	13053	24.507148616409	1000
1	13059	24.52302902176	1000
1	13063	24.524933353385	1000
1	13067	24.532192356866	1000
1	13071	24.538265591444	1000
1	13075	24.544114019639	1000
1	13079	24.544962859243	1000
1	13083	24.563708057142	1000
1	13087	24.563767352918	1000
1	13091	24.565906308109	1000
1	13095	24.580227741504	1000
1	13099	24.583324154859	1000
1	13113	24.605853323749	1000
1	13118	24.61689768169	1000
1	13122	24.633690755135	1000
1	13126	24.636761992728	1000
1	13130	24.65346399685	1000
1	13134	24.675162551765	1000
1	13138	24.684533639545	1000
1	13142	24.684867037149	1000
1	13146	24.689672282397	1000
1	13159	24.700404943092	1000
1	13171	24.733790486422	1000
1	13175	24.736733686282	1000
1	13179	24.737270086313	1000
1	13183	24.748145746585	1000
1	13187	24.757490443056	1000
1	13191	24.763750927864	1000
1	13198	24.80058689075	1000
1	13208	24.801643533256	1000
1	13214	24.837859821554	1000
1	13218	24.838287215075	1000
1	13222	24.847578054752	1000
1	13226	24.88252270635	1000
1	13230	24.889955979363	1000
1	13234	24.891357723561	1000
1	13255	24.932922796926	1000
1	13259	24.940131566693	1000
1	13263	24.960420056175	1000
1	13267	24.974152592857	1000
1	13271	24.980398839296	1000
1	13288	25.028882749433	1000
1	13292	25.04172798505	1000
1	13296	25.058727585112	1000
1	13300	25.058990470933	1000
1	13304	25.070264332455	1000
1	13321	25.105110915967	1000
1	13327	25.108435987799	1000
1	13332	25.111892939401	1000
1	13337	25.13467400352	1000
1	13341	25.169549070172	1000
1	13345	25.175118183425	1000
1	13349	25.188633261606	1000
1	13364	25.218306201763	1000
1	13368	25.219505682576	1000
1	13372	25.227467392113	1000
1	13376	25.245680012547	1000
1	13380	25.258226453345	1000
1	13384	25.259849585296	1000
1	13388	25.28344521738	1000
1	13392	25.294995530147	1000
1	13413	25.3311037954	1000
1	13417	25.342153483716	1000
1	13421	25.362375396577	1000
1	13436	25.414848236896	1000
1	13440	25.433431263673	1000
1	13444	25.441543914559	1000
1	13448	25.452198468141	1000
1	13452	25.462417059854	1000
1	13456	25.463025718129	1000
1	13460	25.468865004612	1000
1	13464	25.4754489162	1000
1	13468	25.477114980532	1000
1	13472	25.477621184981	1000
1	13476	25.477678290741	1000
1	13480	25.482973980335	1000
1	13484	25.486307268503	1000
1	13488	25.496033840003	1000
1	13509	25.526947793894	1000
1	13513	25.527425754462	1000
1	13517	25.534282563194	1000
1	13521	25.54750120867	1000
1	13525	25.548556794252	1000
1	13529	25.559916858387	1000
1	13533	25.565444133168	1000
1	13537	25.582835983592	1000
1	13541	25.58625007037	1000
1	13545	25.587831827842	1000
1	13549	25.589190424625	1000
1	13553	25.597383197187	1000
1	13567	25.607291423169	1000
1	13571	25.610254255745	1000
1	13576	25.619857681357	1000
1	13581	25.635041592198	1000
1	13585	25.638490624761	1000
1	13589	25.638613228256	1000
1	13593	25.659952235929	1000
1	13597	25.682222296528	1000
1	13601	25.687913918604	1000
1	13622	25.721328642903	1000
1	13626	25.74236810713	1000
1	13630	25.746949800521	1000
1	13634	25.757891187137	1000
1	13638	25.764103810064	1000
1	13642	25.765595165716	1000
1	13646	25.771977336018	1000
1	13650	25.79424587517	1000
1	13664	25.803131479252	1000
1	13669	25.814381701802	1000
1	13673	25.819734785117	1000
1	13677	25.822054933796	1000
1	13681	25.832183664026	1000
1	13685	25.841813257604	1000
1	13689	25.879331455837	1000
1	13693	25.879444287529	1000
1	13712	25.906855905082	1000
1	13718	25.938075413791	1000
1	13722	25.941378510151	1000
1	13726	25.941939548298	1000
1	13730	25.964614115889	1000
1	13734	25.966835275937	1000
1	13738	25.972903028249	1000
1	13742	25.980147055502	1000
1	13746	25.984863547601	1000
1	13750	25.991536091784	1000
1	13754	25.996010559094	1000
1	13770	26.004949487668	1000
1	13774	26.005439565026	1000
1	13779	26.016167139337	1000
1	13783	26.018158193676	1000
1	13787	26.063117619684	1000
1	13791	26.075565862098	1000
1	13795	26.075661274688	1000
1	13799	26.076139509378	1000
1	13803	26.079911620386	1000
1	13807	26.097235467922	1000
1	13811	26.098397092854	1000
1	13830	26.111415999291	1000
1	13836	26.121040181272	1000
1	13840	26.1279239264	1000
1	13844	26.130266432276	1000
1	13848	26.130665632204	1000
1	13852	26.139284008382	1000
1	13856	26.147957622381	1000
1	13860	26.14813776794	1000
1	13864	26.160483746317	1000
1	13868	26.165864929997	1000
1	13872	26.17374225532	1000
1	13876	26.181116205744	1000
1	13880	26.195467880321	1000
1	13894	26.203936475444	1000
1	13898	26.209481892151	1000
1	13903	26.212107182189	1000
1	13907	26.21247122231	1000
1	13911	26.215548230452	1000
1	13915	26.227216531328	1000
1	13919	26.230799679459	1000
1	13923	26.244424039517	1000
1	13927	26.277712515181	1000
1	13931	26.281270242391	1000
1	13935	26.299108009763	1000
1	13955	26.311918901271	1000
1	13961	26.318040518601	1000
1	13965	26.3327440017	1000
1	13969	26.336680610163	1000
1	13973	26.340950067781	1000
1	13977	26.347089818891	1000
1	13981	26.353703368775	1000
1	13985	26.363346614168	1000
1	13989	26.369148669383	1000
1	13993	26.392361030231	1000
1	14007	26.404387751245	1000
1	14012	26.433815965082	1000
1	14016	26.439289646102	1000
1	14020	26.489423715952	1000
1	14037	26.504332515312	1000
1	14045	26.52187731872	1000
1	14049	26.53223261024	1000
1	14053	26.557595298971	1000
1	14057	26.558831952509	1000
1	14061	26.576991824185	1000
1	14065	26.589661622209	1000
1	14080	26.611727195787	1000
1	14084	26.63709135209	1000
1	14088	26.644594487258	1000
1	14092	26.683966052238	1000
1	14109	26.704148537543	1000
1	14117	26.728547230173	1000
1	14121	26.728702760856	1000
1	14125	26.764069350144	1000
1	14129	26.767596144289	1000
1	14133	26.779534854702	1000
1	14137	26.786853750408	1000
1	14141	26.798208303977	1000
1	14155	26.808647448485	1000
1	14160	26.826350999092	1000
1	14164	26.835974456236	1000
1	14168	26.845824512403	1000
1	14172	26.856575727577	1000
1	14176	26.859532879167	1000
1	14180	26.87333766327	1000
1	14201	26.922274421497	1000
1	14205	26.953537887253	1000
1	14209	26.956751874063	1000
1	14224	27.002358173293	1000
1	14230	27.023632119756	1000
1	14234	27.06444109123	1000
1	14253	27.108565935517	1000
1	14258	27.116088217881	1000
1	14263	27.127911903379	1000
1	14267	27.131627595578	1000
1	14271	27.134435615831	1000
1	14275	27.141574949705	1000
1	14279	27.145037081563	1000
1	14283	27.16801310676	1000
1	14287	27.168736017515	1000
1	14291	27.172831600536	1000
1	14295	27.175178696124	1000
1	14299	27.176424076078	1000
1	14303	27.184979343219	1000
1	14317	27.20813500131	1000
1	14322	27.215001301406	1000
1	14326	27.218700864096	1000
1	14330	27.244361656108	1000
1	14334	27.274840605432	1000
1	14338	27.283298352114	1000
1	14342	27.296178079189	1000
1	14346	27.2969397309	1000
1	14362	27.301951494287	1000
1	14369	27.307875769394	1000
1	14375	27.316325612112	1000
1	14379	27.338983406999	1000
1	14383	27.358884825717	1000
1	14387	27.359002733352	1000
1	14391	27.361029029578	1000
1	14395	27.36671063573	1000
1	14399	27.375320342869	1000
1	14403	27.38652736024	1000
1	14407	27.388398757285	1000
1	14420	27.402698974483	1000
1	14426	27.429271580241	1000
1	14430	27.432310449677	1000
1	14434	27.441625808699	1000
1	14438	27.496608956256	1000
1	14457	27.509007188934	1000
1	14461	27.510181903803	1000
1	14467	27.527994349073	1000
1	14471	27.536502586913	1000
1	14475	27.537928187976	1000
1	14479	27.546615249561	1000
1	14483	27.563504957442	1000
1	14487	27.565000046816	1000
1	14491	27.570285495921	1000
1	14495	27.571317372747	1000
1	14499	27.573288753539	1000
1	14503	27.573935858001	1000
1	14507	27.577012277698	1000
1	14511	27.584279020182	1000
1	14525	27.603088265298	1000
1	14530	27.617000117908	1000
1	14534	27.627627465466	1000
1	14538	27.679371886272	1000
1	14542	27.686848506293	1000
1	14563	27.716450215036	1000
1	14567	27.721375466857	1000
1	14571	27.728047041791	1000
1	14575	27.734122434207	1000
1	14579	27.745022885885	1000
1	14583	27.777291871617	1000
1	14587	27.794812588295	1000
1	14602	27.816357866404	1000
1	14606	27.835206548897	1000
1	14610	27.871620321204	1000
1	14614	27.873075659066	1000
1	14618	27.893285432036	1000
1	14637	27.906672317841	1000
1	14641	27.907071747032	1000
1	14646	27.913178627033	1000
1	14651	27.917779263542	1000
1	14655	27.91908624046	1000
1	14659	27.923536439827	1000
1	14663	27.924967128379	1000
1	14667	27.925013538311	1000
1	14671	27.95124179531	1000
1	14675	27.953289020714	1000
1	14679	27.961318404617	1000
1	14683	27.962002426996	1000
1	14687	27.982051996563	1000
1	14691	27.998982665968	1000
1	14708	28.019544058764	1000
1	14712	28.034600311097	1000
1	14716	28.057398208045	1000
1	14720	28.061632539518	1000
1	14724	28.065452469456	1000
1	14728	28.065969251021	1000
1	14747	28.108655060965	1000
1	14752	28.113038855135	1000
1	14756	28.116135152145	1000
1	14761	28.116983482636	1000
1	14765	28.123725192923	1000
1	14769	28.143566380227	1000
1	14773	28.148187142614	1000
1	14777	28.166376874204	1000
1	14781	28.184217596353	1000
1	14796	28.217301421711	1000
1	14800	28.220863113371	1000
1	14804	28.231418161414	1000
1	14808	28.263234067101	1000
1	14812	28.266446199265	1000
1	14816	28.268184178173	1000
1	14820	28.273929314397	1000
1	14836	28.302879393359	1000
1	14845	28.319492713667	1000
1	14849	28.319951089917	1000
1	14853	28.337758614216	1000
1	14857	28.344972681691	1000
1	14861	28.358143570103	1000
1	14865	28.373018072102	1000
1	14869	28.382680011741	1000
1	14873	28.396995545972	1000
1	14887	28.409100165661	1000
1	14892	28.422823569716	1000
1	14896	28.4241400284	1000
1	14900	28.441137980851	1000
1	14904	28.449240630905	1000
1	14908	28.451751251087	1000
1	14912	28.456230971273	1000
1	14916	28.467858841146	1000
1	14935	28.507719025272	1000
1	14939	28.510219281841	1000
1	14945	28.537298284203	1000
1	14949	28.549786099696	1000
1	14953	28.558043534229	1000
1	14957	28.563591679187	1000
1	14961	28.565597698875	1000
1	14965	28.567140515467	1000
1	14969	28.568824560965	1000
1	14973	28.571931875583	1000
1	14977	28.594909906249	1000
1	14981	28.59828420112	1000
1	14995	28.603573918301	1000
1	15000	28.635824579974	1000
1	15004	28.643678518634	1000
1	15008	28.654438970607	1000
1	15012	28.675613440581	1000
1	15016	28.677463233466	1000
1	15020	28.686618941403	1000
1	15024	28.687867355787	1000
1	15028	28.697258512454	1000
1	15047	28.708086534974	1000
1	15053	28.717564794449	1000
1	15057	28.723000845455	1000
1	15061	28.745642012126	1000
1	15065	28.750088410325	1000
1	15069	28.767411808292	1000
1	15073	28.774552780487	1000
1	15077	28.794195795148	1000
1	15092	28.813011746993	1000
1	15096	28.833649477598	1000
1	15100	28.847737428276	1000
1	15104	28.864761345264	1000
1	15108	28.882917149536	1000
1	15112	28.899617485197	1000
1	15129	28.905590028032	1000
1	15135	28.908229431561	1000
1	15141	28.950360588983	1000
1	15145	28.953914163282	1000
1	15160	29.001085621192	1000
1	15164	29.002379105567	1000
1	15170	29.023430897764	1000
1	15174	29.026282645894	1000
1	15178	29.047613243159	1000
1	15182	29.048473577403	1000
1	15186	29.072655681971	1000
1	15190	29.079158595551	1000
1	15209	29.110213814509	1000
1	15215	29.122549848729	1000
1	15219	29.131266900236	1000
1	15223	29.141317779354	1000
1	15227	29.150544017486	1000
1	15231	29.152308906008	1000
1	15235	29.165670023239	1000
1	15239	29.16803267522	1000
1	15243	29.189887589112	1000
1	15247	29.190667261639	1000
1	15262	29.227721663549	1000
1	15266	29.229657198266	1000
1	15270	29.231684944281	1000
1	15274	29.232556937964	1000
1	15278	29.234504560708	1000
1	15282	29.244744174453	1000
1	15286	29.250041708161	1000
1	15290	29.282629857182	1000
1	15294	29.288104526978	1000
1	15316	29.319371757752	1000
1	15320	29.320095988104	1000
1	15324	29.323076600912	1000
1	15328	29.345270129488	1000
1	15332	29.347414957768	1000
1	15336	29.351032314835	1000
1	15340	29.356599951161	1000
1	15344	29.367130517949	1000
1	15348	29.373107624654	1000
1	15352	29.376854159943	1000
1	15356	29.384862607401	1000
1	15360	29.393970438691	1000
1	15375	29.433342733103	1000
1	15379	29.446865193462	1000
1	15383	29.44942608539	1000
1	15387	29.46661818034	1000
1	15407	29.514267850327	1000
1	15412	29.516228177876	1000
1	15416	29.518352630409	1000
1	15420	29.519814317204	1000
1	15424	29.523937077632	1000
1	15428	29.538224791096	1000
1	15432	29.543080359794	1000
1	15436	29.544284259993	1000
1	15440	29.556212105053	1000
1	15444	29.574119337228	1000
1	15448	29.580350500553	1000
1	15452	29.593539259222	1000
1	15466	29.604210112727	1000
1	15471	29.616592013839	1000
1	15475	29.623167743888	1000
1	15479	29.630948112389	1000
1	15483	29.651193637214	1000
1	15487	29.661808874915	1000
1	15491	29.662997283048	1000
1	15495	29.66336098384	1000
1	15499	29.671951873628	1000
1	15503	29.681392399702	1000
1	15519	29.701717201108	1000
1	15528	29.717448631071	1000
1	15532	29.720513268664	1000
1	15536	29.739448367476	1000
1	15540	29.751350746346	1000
1	15544	29.754538208438	1000
1	15548	29.763243114335	1000
1	15552	29.766536793306	1000
1	15556	29.781886446838	1000
1	15560	29.78619856965	1000
1	15564	29.794438455123	1000
1	15579	29.821854959162	1000
1	15583	29.874306938158	1000
1	15603	29.912319045907	1000
1	15608	29.929979515891	1000
1	15612	29.931736529465	1000
1	15616	29.939308677674	1000
1	15620	29.980720461367	1000
1	15624	29.985945547096	1000
1	15628	29.988030597693	1000
1	15632	29.990578711138	1000
1	15641	30.000143437946	1000
1	15645	30.000406727009	1000
1	15657	30.018056486961	1000
1	15661	30.024038687783	1000
1	15665	30.027072000474	1000
1	15669	30.031208900679	1000
1	15673	30.050712298775	1000
1	15677	30.051166978635	1000
1	15681	30.068872202873	1000
1	15685	30.086112997978	1000
1	15689	30.087133697051	1000
1	15708	30.108470559973	1000
1	15712	30.110736076594	1000
1	15717	30.11249627338	1000
1	15721	30.114680309927	1000
1	15725	30.114713451724	1000
1	15730	30.123862304644	1000
1	15734	30.12938723846	1000
1	15738	30.131242593162	1000
1	15742	30.155608451192	1000
1	15746	30.164075988128	1000
1	15750	30.169221555698	1000
1	15754	30.178351490036	1000
1	15758	30.198230592506	1000
1	15771	30.20048007036	1000
1	15777	30.224570130182	1000
1	15781	30.235136719672	1000
1	15785	30.246607453128	1000
1	15789	30.257264038066	1000
1	15793	30.260265885681	1000
1	15797	30.262716842447	1000
1	15801	30.270503014779	1000
1	15805	30.275790081454	1000
1	15809	30.279096536426	1000
1	15813	30.289542863712	1000
1	15833	30.312813559689	1000
1	15838	30.322581015939	1000
1	15842	30.351021523575	1000
1	15846	30.366160535074	1000
1	15850	30.393844144582	1000
1	15854	30.396547555573	1000
1	15868	30.40716903192	1000
1	15873	30.412425097615	1000
1	15877	30.42876221622	1000
1	15881	30.435933634968	1000
1	15885	30.4423096726	1000
1	15889	30.444161183841	1000
1	15893	30.449414957503	1000
1	15897	30.462639299127	1000
1	15901	30.471169475782	1000
1	15905	30.479955423404	1000
1	15909	30.492490568573	1000
1	15913	30.496363443006	1000
1	15917	30.499356465681	1000
1	15938	30.540570504581	1000
1	15942	30.542350156468	1000
1	15946	30.543363762664	1000
1	15950	30.557958345755	1000
1	15954	30.570458053379	1000
1	15958	30.576021031446	1000
1	15962	30.57697976524	1000
1	15966	30.580913982226	1000
1	15970	30.581684919529	1000
1	15985	30.635936306954	1000
1	15989	30.650201666418	1000
1	15993	30.65698701442	1000
1	15997	30.68725532209	1000
1	16001	30.697256535992	1000
1	16021	30.712163901941	1000
1	16026	30.720645251917	1000
1	16030	30.741662658789	1000
1	16034	30.790172677426	1000
1	16038	30.796547627121	1000
1	16042	30.798459759373	1000
1	16056	30.804626614058	1000
1	16061	30.823803363579	1000
1	16065	30.823805604355	1000
1	16069	30.860911142661	1000
1	16073	30.873945934453	1000
1	16077	30.878409970679	1000
1	16081	30.886485903083	1000
1	16085	30.8901653911	1000
1	16089	30.897036341501	1000
1	16108	30.909236939557	1000
1	16114	30.922690079812	1000
1	16118	30.927367070908	1000
1	16122	30.927645879791	1000
1	16126	30.933328128371	1000
1	16130	30.938975431572	1000
1	16134	30.945348269932	1000
1	16138	30.985828503407	1000
1	16155	31.027946051885	1000
1	16159	31.029878139413	1000
1	16163	31.059240124078	1000
1	16180	31.105294050019	1000
1	16186	31.108853069209	1000
1	16192	31.125065303116	1000
1	16196	31.127380383711	1000
1	16200	31.135043510762	1000
1	16204	31.146257107566	1000
1	16208	31.148632498062	1000
1	16212	31.158139733436	1000
1	16216	31.174250797911	1000
1	16220	31.187461215337	1000
1	16224	31.199416477653	1000
1	16237	31.200956373737	1000
1	16243	31.238545865068	1000
1	16247	31.240368542569	1000
1	16251	31.251736905297	1000
1	16255	31.253401588404	1000
1	16259	31.26271219735	1000
1	16263	31.286960259647	1000
1	16267	31.298900547628	1000
1	16288	31.327608917538	1000
1	16292	31.340503364474	1000
1	16296	31.34779580213	1000
1	16300	31.355343507824	1000
1	16304	31.358197075175	1000
1	16308	31.395110243871	1000
1	16312	31.399579123153	1000
1	16326	31.405707948307	1000
1	16330	31.40607085547	1000
1	16335	31.411963251186	1000
1	16339	31.413452413999	1000
1	16343	31.416002204127	1000
1	16347	31.434703623482	1000
1	16351	31.442371851747	1000
1	16355	31.464194447072	1000
1	16359	31.468872777293	1000
1	16363	31.474671226765	1000
1	16367	31.496086339336	1000
1	16371	31.496926665661	1000
1	16392	31.517532443346	1000
1	16396	31.520291288862	1000
1	16400	31.533059397793	1000
1	16404	31.542193157267	1000
1	16408	31.560880170488	1000
1	16412	31.578334939756	1000
1	16416	31.588614345653	1000
1	16420	31.599044062959	1000
1	16435	31.614951468687	1000
1	16439	31.626268114276	1000
1	16443	31.636092411539	1000
1	16447	31.644354993325	1000
1	16451	31.68225677556	1000
1	16455	31.685257403136	1000
1	16459	31.692153119856	1000
1	16463	31.698664783683	1000
1	16482	31.709263593943	1000
1	16488	31.723079510217	1000
1	16492	31.726103754793	1000
1	16496	31.736006290965	1000
1	16500	31.766373496608	1000
1	16504	31.769577812704	1000
1	16508	31.770987063479	1000
1	16512	31.774916326039	1000
1	16516	31.78457172816	1000
1	16520	31.791800036145	1000
1	16524	31.798766126439	1000
1	16539	31.811508813322	1000
1	16543	31.841301618389	1000
1	16547	31.843769132654	1000
1	16551	31.848912223641	1000
1	16555	31.854749040048	1000
1	16559	31.856746943123	1000
1	16563	31.883289432383	1000
1	16583	31.915626908479	1000
1	16597	32.001318274126	1000
1	16604	32.004567513826	1000
1	16608	32.005460988686	1000
1	16612	32.007388276409	1000
1	16617	32.028023706603	1000
1	16621	32.05987978545	1000
1	16625	32.065158565138	1000
1	16642	32.104558311851	1000
1	16650	32.123690042329	1000
1	16654	32.128924092116	1000
1	16658	32.151766008229	1000
1	16662	32.1640593935	1000
1	16666	32.171156959973	1000
1	16670	32.178373090479	1000
1	16685	32.217653001525	1000
1	16689	32.221814084488	1000
1	16693	32.23510694401	1000
1	16697	32.254675506726	1000
1	16701	32.26051658718	1000
1	16705	32.268006535067	1000
1	16709	32.28034230221	1000
1	16714	32.290976714945	1000
1	16733	32.306832950105	1000
1	16739	32.330058833744	1000
1	16743	32.339422743604	1000
1	16747	32.377876381202	1000
1	16751	32.381837371428	1000
1	16755	32.382666444752	1000
1	16759	32.388487437313	1000
1	16774	32.428409293722	1000
1	16778	32.445732987596	1000
1	16782	32.448364180395	1000
1	16786	32.49513312419	1000
1	16805	32.509677883121	1000
1	16811	32.528945381105	1000
1	16815	32.529609873278	1000
1	16819	32.544999894437	1000
1	16823	32.552930989133	1000
1	16827	32.571943620324	1000
1	16831	32.587051431616	1000
1	16835	32.589380548681	1000
1	16850	32.619498818988	1000
1	16854	32.629843474291	1000
1	16858	32.635691246911	1000
1	16862	32.638791932773	1000
1	16866	32.657156082146	1000
1	16870	32.699519075974	1000
1	16890	32.715478968705	1000
1	16895	32.726774075474	1000
1	16899	32.762803824366	1000
1	16903	32.777723525188	1000
1	16907	32.78503962814	1000
1	16911	32.789696798823	1000
1	16915	32.792206286721	1000
1	16930	32.817033601045	1000
1	16934	32.832433656139	1000
1	16938	32.878277332765	1000
1	16942	32.879215509982	1000
1	16946	32.883750714251	1000
1	16950	32.890010573628	1000
1	16971	32.929425105418	1000
1	16975	32.940147326965	1000
1	16979	32.95382368072	1000
1	16983	32.95761439393	1000
1	16987	32.961186993888	1000
1	16991	32.966223680098	1000
1	16995	32.967276507058	1000
1	17010	33.000940943481	1000
1	17015	33.007174518594	1000
1	17019	33.009859767846	1000
1	17024	33.014915500409	1000
1	17028	33.017530224187	1000
1	17032	33.021076203072	1000
1	17036	33.0380819958	1000
1	17040	33.04134404765	1000
1	17044	33.055745547442	1000
1	17048	33.066543634389	1000
1	17052	33.068424643555	1000
1	17056	33.08573691778	1000
1	17075	33.108734386127	1000
1	17081	33.14621375435	1000
1	17085	33.184543762101	1000
1	17089	33.199249012355	1000
1	17103	33.203381642202	1000
1	17107	33.203845430262	1000
1	17111	33.209781519888	1000
1	17116	33.225633290825	1000
1	17120	33.259522625931	1000
1	17124	33.260968862173	1000
1	17128	33.270345836173	1000
1	17132	33.278072949219	1000
1	17136	33.278634631456	1000
1	17140	33.291255745171	1000
1	17160	33.31597891495	1000
1	17165	33.323414388431	1000
1	17169	33.332303940551	1000
1	17173	33.334653051968	1000
1	17177	33.336202314297	1000
1	17181	33.347620599762	1000
1	17185	33.362743313968	1000
1	17189	33.366811075137	1000
1	17193	33.375115660671	1000
1	17208	33.413173668668	1000
1	17212	33.413580365732	1000
1	17216	33.416807685301	1000
1	17220	33.418112790723	1000
1	17224	33.438823941009	1000
1	17228	33.497134560357	1000
1	17232	33.499222930288	1000
1	17252	33.515950054632	1000
1	17257	33.520015720887	1000
1	17261	33.524798988874	1000
1	17265	33.556684096504	1000
1	17269	33.571643451169	1000
1	17273	33.591703967486	1000
1	17277	33.59898234962	1000
1	17291	33.603739153676	1000
1	17295	33.605525424844	1000
1	17300	33.617307483681	1000
1	17304	33.630974511978	1000
1	17308	33.6629539581	1000
1	17312	33.664558446135	1000
1	17316	33.680588419324	1000
1	17320	33.690078598411	1000
1	17324	33.697413647325	1000
1	17344	33.714190085903	1000
1	17349	33.725405849419	1000
1	17353	33.726706957824	1000
1	17357	33.733226242832	1000
1	17361	33.798533040539	1000
1	17376	33.816042271953	1000
1	17380	33.833297385557	1000
1	17384	33.863941698041	1000
1	17388	33.879626416318	1000
1	17404	33.902231704699	1000
1	17411	33.908383300102	1000
1	17416	33.91451610105	1000
1	17421	33.952283649149	1000
1	17425	33.969284377442	1000
1	17429	33.976932737577	1000
1	17433	33.985003384854	1000
1	17437	33.985204143969	1000
1	17441	33.988336370046	1000
1	17445	33.995984429049	1000
1	17454	34.00015868922	1000
1	17466	34.048245306425	1000
1	17470	34.049718401056	1000
1	17474	34.058170306025	1000
1	17478	34.0582898507	1000
1	17482	34.062107849267	1000
1	17486	34.065157747115	1000
1	17490	34.076306895368	1000
1	17506	34.102494578262	1000
1	17514	34.112523376082	1000
1	17519	34.124920727754	1000
1	17523	34.128861499721	1000
1	17527	34.133294566833	1000
1	17531	34.141588482397	1000
1	17535	34.151675995099	1000
1	17539	34.161160589196	1000
1	17543	34.16477460182	1000
1	17547	34.166668116901	1000
1	17551	34.172181579734	1000
1	17555	34.190577941885	1000
1	17568	34.201457978527	1000
1	17573	34.20386683149	1000
1	17577	34.207053460331	1000
1	17582	34.23519839775	1000
1	17586	34.24125230334	1000
1	17590	34.264317528563	1000
1	17609	34.309833002986	1000
1	17614	34.315148526551	1000
1	17618	34.315304548675	1000
1	17623	34.330918670964	1000
1	17627	34.338891944874	1000
1	17631	34.365101232125	1000
1	17635	34.367326046556	1000
1	17639	34.37067067566	1000
1	17643	34.378326443993	1000
1	17647	34.380077520583	1000
1	17651	34.385439229951	1000
1	17655	34.385627463224	1000
1	17669	34.405048022227	1000
1	17673	34.406321739902	1000
1	17678	34.417193606008	1000
1	17682	34.420843105293	1000
1	17686	34.421208801039	1000
1	17690	34.42260309722	1000
1	17694	34.437019418571	1000
1	17698	34.463623169542	1000
1	17702	34.46429792237	1000
1	17706	34.468263939153	1000
1	17710	34.474362521735	1000
1	17731	34.520541310548	1000
1	17735	34.527556439497	1000
1	17739	34.548462534774	1000
1	17743	34.552423262771	1000
1	17747	34.560000432837	1000
1	17751	34.580975294561	1000
1	17755	34.59854336038	1000
1	17768	34.601813982136	1000
1	17773	34.605309725812	1000
1	17778	34.614851166667	1000
1	17782	34.648221521776	1000
1	17786	34.64975453959	1000
1	17790	34.66749871803	1000
1	17794	34.683553365741	1000
1	17813	34.706381018476	1000
1	17819	34.732781400686	1000
1	17823	34.758572093126	1000
1	17827	34.786313529085	1000
1	17842	34.833688340866	1000
1	17846	34.838537664907	1000
1	17850	34.870280483988	1000
1	17867	34.905657583356	1000
1	17875	34.918193288222	1000
1	17879	34.931302134138	1000
1	17883	34.936630582603	1000
1	17887	34.95304279432	1000
1	17891	34.964115358662	1000
1	17895	34.982634609859	1000
1	17899	34.98463454371	1000
1	17915	35.004856943874	1000
1	17920	35.020278340705	1000
1	17924	35.029752792011	1000
1	17928	35.033361456961	1000
1	17932	35.034594812539	1000
1	17936	35.042553989796	1000
1	17940	35.044428525281	1000
1	17944	35.06164290882	1000
1	17948	35.092655750434	1000
1	17968	35.113254770654	1000
1	17973	35.118068723611	1000
1	17977	35.119962673649	1000
1	17981	35.120058010383	1000
1	17985	35.133133536458	1000
1	17989	35.135626864347	1000
1	17993	35.150755682039	1000
1	17997	35.161035902058	1000
1	18001	35.16865483708	1000
1	18005	35.186163243475	1000
1	18020	35.233764937628	1000
1	18024	35.235416706902	1000
1	18028	35.245012638953	1000
1	18032	35.249521584661	1000
1	18036	35.249861827467	1000
1	18040	35.250219253297	1000
1	18044	35.260561509035	1000
1	18048	35.261600176299	1000
1	18052	35.262139244265	1000
1	18056	35.264416888897	1000
1	18060	35.271808115757	1000
1	18064	35.280144319896	1000
1	18084	35.309763253285	1000
1	18089	35.316293136851	1000
1	18094	35.317661631401	1000
1	18098	35.32081229123	1000
1	18102	35.355706856957	1000
1	18106	35.366557781186	1000
1	18110	35.371826216718	1000
1	18114	35.398613024191	1000
1	18127	35.40290297111	1000
1	18133	35.428456105424	1000
1	18137	35.430005575836	1000
1	18141	35.463417499899	1000
1	18145	35.496724398864	1000
1	18158	35.501806784134	1000
1	18165	35.50201923885	1000
1	18172	35.507244915265	1000
1	18176	35.509638200897	1000
1	18181	35.513350252901	1000
1	18186	35.525142075993	1000
1	18190	35.532166471962	1000
1	18194	35.548162367845	1000
1	18198	35.560323821483	1000
1	18202	35.56461347668	1000
1	18206	35.569310031754	1000
1	18210	35.588512583394	1000
1	18214	35.597628208713	1000
1	18218	35.599263278028	1000
1	18232	35.609866927893	1000
1	18237	35.611648634805	1000
1	18241	35.636012627298	1000
1	18245	35.637673709967	1000
1	18249	35.650956157745	1000
1	18253	35.678210401168	1000
1	18257	35.679449733761	1000
1	18261	35.688515934288	1000
1	18282	35.726582954117	1000
1	18286	35.730490764771	1000
1	18290	35.734450625783	1000
1	18294	35.742070351503	1000
1	18298	35.777480213145	1000
1	18302	35.796854444248	1000
1	18315	35.800650478823	1000
1	18320	35.803811588348	1000
1	18324	35.806468580108	1000
1	18329	35.813208229551	1000
1	18333	35.833005454535	1000
1	18337	35.834988227539	1000
1	18341	35.846506741176	1000
1	18345	35.854177250606	1000
1	18349	35.866649630821	1000
1	18353	35.872849445535	1000
1	18357	35.889965955504	1000
1	18361	35.894611698297	1000
1	18380	35.909980535841	1000
1	18386	35.948504995636	1000
1	18390	35.958893357577	1000
1	18394	35.970973217733	1000
1	18398	35.979901482209	1000
1	18402	35.987886707877	1000
1	18406	35.990101671359	1000
1	18422	36.004061360952	1000
1	18427	36.015243448991	1000
1	18431	36.024902742639	1000
1	18435	36.029293527597	1000
1	18439	36.035313765879	1000
1	18443	36.042126621084	1000
1	18447	36.054983902302	1000
1	18451	36.0705147705	1000
1	18455	36.07501900933	1000
1	18459	36.086464942263	1000
1	18463	36.092016498707	1000
1	18467	36.099984492386	1000
1	18480	36.101010108671	1000
[...]
32	3650	5.201088457963	1
32	3654	5.202490791296	2
32	3656	5.202657791296	1
32	3656	5.202657791296	0
32	3722	5.401133982372	1
32	3724	5.401133982372	2
32	3726	5.401189982372	1
32	3730	5.402592315705	2
32	3732	5.402839315705	1
32	3732	5.402839315705	0
32	3869	5.601133275214	1
32	3871	5.601133275214	2
32	3873	5.601189275214	1
32	3873	5.601189275214	0
32	3953	5.800733219007	1
32	3955	5.800733219007	2
32	3957	5.800789219007	1
32	3957	5.800789219007	0
32	4047	6.001395256913	1
32	4049	6.001395256913	2
32	4051	6.001451256913	1
32	4051	6.001451256913	0
32	4123	6.200483982494	1
32	4125	6.200483982494	2
32	4127	6.200539982494	1
32	4127	6.200539982494	0
32	4235	6.40070212648	1
32	4237	6.40070212648	2
32	4239	6.40075812648	1
32	4239	6.40075812648	0
32	4315	6.601091378748	1
32	4317	6.601091378748	2
32	4319	6.601147378748	1
32	4319	6.601147378748	0
32	4423	6.801251015963	1
32	4425	6.801251015963	2
32	4427	6.801307015963	1
32	4427	6.801307015963	0
32	4529	7.000604420911	1
32	4531	7.000604420911	2
32	4533	7.000660420911	1
32	4533	7.000660420911	0
32	4641	7.201237664924	1
32	4643	7.201237664924	2
32	4645	7.201293664924	1
32	4645	7.201293664924	0
32	4717	7.400648332623	1
32	4719	7.400648332623	2
32	4721	7.400704332623	1
32	4721	7.400704332623	0
32	4809	7.601043797835	1
32	4811	7.601043797835	2
32	4813	7.601099797835	1
32	4813	7.601099797835	0
32	4897	7.800012320532	1
32	4899	7.800012320532	2
32	4901	7.800068320532	1
32	4901	7.800068320532	0
32	4995	8.000036752076	1
32	4997	8.000036752076	2
32	4999	8.000092752076	1
32	4999	8.000092752076	0
32	5103	8.201371490306	1
32	5105	8.201371490306	2
32	5107	8.201427490306	1
32	5107	8.201427490306	0
32	5215	8.400148951177	1
32	5217	8.400148951177	2
32	5219	8.400204951177	1
32	5219	8.400204951177	0
32	5299	8.600965369691	1
32	5301	8.600965369691	2
32	5303	8.601021369691	1
32	5303	8.601021369691	0
32	5387	8.800413085673	1
32	5389	8.800413085673	2
32	5391	8.800469085673	1
32	5391	8.800469085673	0
32	5489	9.000292895091	1
32	5491	9.000292895091	2
32	5493	9.000348895091	1
32	5493	9.000348895091	0
32	5601	9.200566320676	1
32	5603	9.200566320676	2
32	5605	9.200622320676	1
32	5605	9.200622320676	0
32	5701	9.401350273162	1
32	5703	9.401350273162	2
32	5705	9.401406273162	1
32	5705	9.401406273162	0
32	5821	9.600831649887	1
32	5823	9.600831649887	2
32	5825	9.600887649887	1
32	5825	9.600887649887	0
32	5917	9.801336875482	1
32	5919	9.801336875482	2
32	5921	9.801392875482	1
32	5921	9.801392875482	0
32	6027	10.00102413535	1
32	6029	10.00102413535	2
32	6031	10.00108013535	1
32	6031	10.00108013535	0
32	6123	10.200730940664	1
32	6125	10.200730940664	2
32	6127	10.200786940664	1
32	6127	10.200786940664	0
32	6219	10.400738043291	1
32	6221	10.400738043291	2
32	6223	10.400794043291	1
32	6223	10.400794043291	0
32	6311	10.600319113642	1
32	6313	10.600319113642	2
32	6315	10.600375113642	1
32	6315	10.600375113642	0
32	6437	10.800006800968	1
32	6439	10.800006800968	2
32	6441	10.800062800968	1
32	6441	10.800062800968	0
32	6535	11.000609344526	1
32	6537	11.000609344526	2
32	6539	11.000665344526	1
32	6539	11.000665344526	0
32	6611	11.20082159016	1
32	6613	11.20082159016	2
32	6615	11.20087759016	1
32	6615	11.20087759016	0
32	6707	11.401278319392	1
32	6709	11.401278319392	2
32	6711	11.401334319392	1
32	6711	11.401334319392	0
32	6816	11.600988144558	1
32	6818	11.600988144558	2
32	6820	11.601044144558	1
32	6820	11.601044144558	0
32	6896	11.801228402356	1
32	6898	11.801228402356	2
32	6900	11.801284402356	1
32	6900	11.801284402356	0
32	6982	12.00135065187	1
32	6984	12.00135065187	2
32	6986	12.00140665187	1
32	6986	12.00140665187	0
32	7102	12.201372460656	1
32	7104	12.201372460656	2
32	7106	12.201428460656	1
32	7106	12.201428460656	0
32	7214	12.401190027933	1
32	7216	12.401190027933	2
32	7218	12.401246027933	1
32	7218	12.401246027933	0
32	7298	12.600191617136	1
32	7300	12.600191617136	2
32	7302	12.600247617136	1
32	7302	12.600247617136	0
32	7402	12.800505502114	1
32	7404	12.800505502114	2
32	7406	12.800561502114	1
32	7406	12.800561502114	0
32	7496	13.000304066138	1
32	7498	13.000304066138	2
32	7500	13.000360066138	1
32	7500	13.000360066138	0
32	7608	13.201264931415	1
32	7610	13.201264931415	2
32	7612	13.201320931415	1
32	7612	13.201320931415	0
32	7708	13.401155481566	1
32	7710	13.401155481566	2
32	7712	13.401211481566	1
32	7712	13.401211481566	0
32	7768	13.600508960727	1
32	7770	13.600508960727	2
32	7772	13.600564960727	1
32	7772	13.600564960727	0
32	7888	13.800829996612	1
32	7890	13.800829996612	2
32	7892	13.800885996612	1
32	7892	13.800885996612	0
32	8010	14.001174150163	1
32	8012	14.001174150163	2
32	8014	14.001230150163	1
32	8014	14.001230150163	0
32	8094	14.201215026813	1
32	8096	14.201215026813	2
32	8098	14.201271026813	1
32	8098	14.201271026813	0
32	8187	14.40030011578	1
32	8189	14.40030011578	2
32	8191	14.40035611578	1
32	8191	14.40035611578	0
32	8279	14.601065575291	1
32	8281	14.601065575291	2
32	8283	14.601121575291	1
32	8283	14.601121575291	0
32	8379	14.801171645658	1
32	8381	14.801171645658	2
32	8383	14.801227645658	1
32	8383	14.801227645658	0
32	8513	15.000062896512	1
32	8515	15.000062896512	2
32	8517	15.000118896512	1
32	8517	15.000118896512	0
32	8621	15.200156314958	1
32	8623	15.200156314958	2
32	8625	15.200212314958	1
32	8625	15.200212314958	0
32	8717	15.400634496989	1
32	8719	15.400634496989	2
32	8721	15.400690496989	1
32	8721	15.400690496989	0
32	8817	15.600322118444	1
32	8819	15.600322118444	2
32	8821	15.600378118444	1
32	8821	15.600378118444	0
32	8901	15.801284240506	1
32	8903	15.801284240506	2
32	8909	15.801340240506	1
32	8909	15.801340240506	0
32	8999	16.001049544334	1
32	9001	16.001049544334	2
32	9003	16.001105544334	1
32	9003	16.001105544334	0
32	9095	16.201039802298	1
32	9097	16.201039802298	2
32	9099	16.201095802298	1
32	9099	16.201095802298	0
32	9183	16.401122712	1
32	9185	16.401122712	2
32	9187	16.401178712	1
32	9187	16.401178712	0
32	9263	16.600482339416	1
32	9265	16.600482339416	2
32	9267	16.600538339416	1
32	9267	16.600538339416	0
32	9351	16.800333389949	1
32	9353	16.800333389949	2
32	9355	16.800389389949	1
32	9355	16.800389389949	0
32	9445	17.000913418278	1
32	9447	17.000913418278	2
32	9449	17.000969418278	1
32	9449	17.000969418278	0
32	9565	17.200604448905	1
32	9567	17.200604448905	2
32	9569	17.200660448905	1
32	9569	17.200660448905	0
32	9662	17.401366139067	1
32	9664	17.401366139067	2
32	9666	17.401422139067	1
32	9666	17.401422139067	0
32	9754	17.600936909787	1
32	9756	17.600936909787	2
32	9758	17.600992909787	1
32	9758	17.600992909787	0
32	9878	17.80056422967	1
32	9880	17.80056422967	2
32	9882	17.80062022967	1
32	9882	17.80062022967	0
32	9976	18.001247049515	1
32	9978	18.001247049515	2
32	9980	18.001303049515	1
32	9980	18.001303049515	0
32	10060	18.200555322514	1
32	10062	18.200555322514	2
32	10064	18.200611322514	1
32	10064	18.200611322514	0
32	10152	18.400260035163	1
32	10154	18.400260035163	2
32	10156	18.400316035163	1
32	10156	18.400316035163	0
32	10232	18.601139920001	1
32	10234	18.601139920001	2
32	10236	18.601195920001	1
32	10236	18.601195920001	0
32	10328	18.800688637525	1
32	10330	18.800688637525	2
32	10332	18.800744637525	1
32	10332	18.800744637525	0
32	10442	19.000378408922	1
32	10444	19.000378408922	2
32	10446	19.000434408922	1
32	10446	19.000434408922	0
32	10522	19.201009748896	1
32	10524	19.201009748896	2
32	10526	19.201065748896	1
32	10526	19.201065748896	0
32	10610	19.401429874072	1
32	10612	19.401429874072	2
32	10614	19.401485874072	1
32	10614	19.401485874072	0
32	10698	19.600359119821	1
32	10700	19.600359119821	2
32	10702	19.600415119821	1
32	10702	19.600415119821	0
32	10802	19.801152438873	1
32	10804	19.801152438873	2
32	10806	19.801208438873	1
32	10806	19.801208438873	0
32	10900	20.001111738903	1
32	10902	20.001111738903	2
32	10904	20.001167738903	1
32	10904	20.001167738903	0
32	11000	20.20017505803	1
32	11002	20.20017505803	2
32	11004	20.20023105803	1
32	11004	20.20023105803	0
32	11069	20.401223399621	1
32	11071	20.401223399621	2
32	11073	20.401279399621	1
32	11073	20.401279399621	0
32	11133	20.600673369234	1
32	11135	20.600673369234	2
32	11137	20.600729369234	1
32	11137	20.600729369234	0
32	11257	20.800183431189	1
32	11259	20.800183431189	2
32	11261	20.800239431189	1
32	11261	20.800239431189	0
32	11339	21.000782167563	1
32	11341	21.000782167563	2
32	11343	21.000838167563	1
32	11343	21.000838167563	0
32	11435	21.20043241443	1
32	11437	21.20043241443	2
32	11439	21.20048841443	1
32	11439	21.20048841443	0
32	11567	21.400256264443	1
32	11569	21.400256264443	2
32	11571	21.400312264443	1
32	11571	21.400312264443	0
32	11655	21.600115555671	1
32	11657	21.600115555671	2
32	11659	21.600171555671	1
32	11659	21.600171555671	0
32	11735	21.800290061181	1
32	11737	21.800290061181	2
32	11739	21.800346061181	1
32	11739	21.800346061181	0
32	11837	22.000626483398	1
32	11839	22.000626483398	2
32	11841	22.000682483398	1
32	11841	22.000682483398	0
32	11941	22.20093597549	1
32	11943	22.20093597549	2
32	11945	22.20099197549	1
32	11945	22.20099197549	0
32	12005	22.400127427961	1
32	12007	22.400127427961	2
32	12009	22.400183427961	1
32	12009	22.400183427961	0
32	12093	22.601043773776	1
32	12095	22.601043773776	2
32	12097	22.601099773776	1
32	12097	22.601099773776	0
32	12213	22.80014837785	1
32	12215	22.80014837785	2
32	12217	22.80020437785	1
32	12217	22.80020437785	0
32	12319	23.000256081984	1
32	12321	23.000256081984	2
32	12323	23.000312081984	1
32	12323	23.000312081984	0
32	12391	23.201040260612	1
32	12393	23.201040260612	2
32	12395	23.201096260612	1
32	12395	23.201096260612	0
32	12484	23.401291009531	1
32	12486	23.401291009531	2
32	12488	23.401347009531	1
32	12488	23.401347009531	0
32	12580	23.601433743452	1
32	12582	23.601433743452	2
32	12584	23.601489743452	1
32	12584	23.601489743452	0
32	12656	23.800952155968	1
32	12658	23.800952155968	2
32	12660	23.801008155968	1
32	12660	23.801008155968	0
32	12762	24.000696698846	1
32	12764	24.000696698846	2
32	12766	24.000752698846	1
32	12766	24.000752698846	0
32	12874	24.200128023521	1
32	12876	24.200128023521	2
32	12878	24.200184023521	1
32	12878	24.200184023521	0
32	13006	24.400815136573	1
32	13008	24.400815136573	2
32	13010	24.400871136573	1
32	13010	24.400871136573	0
32	13106	24.600264177418	1
32	13108	24.600264177418	2
32	13110	24.600320177418	1
32	13110	24.600320177418	0
32	13202	24.800750169665	1
32	13204	24.800750169665	2
32	13206	24.800806169665	1
32	13206	24.800806169665	0
32	13280	25.000888023143	1
32	13282	25.000888023143	2
32	13284	25.000944023143	1
32	13284	25.000944023143	0
32	13356	25.201215101551	1
32	13358	25.201215101551	2
32	13360	25.201271101551	1
32	13360	25.201271101551	0
32	13428	25.400472136269	1
32	13430	25.400472136269	2
32	13432	25.400528136269	1
32	13432	25.400528136269	0
32	13560	25.601442090555	1
32	13562	25.601442090555	2
32	13564	25.601498090555	1
32	13564	25.601498090555	0
32	13657	25.801450969133	1
32	13659	25.801450969133	2
32	13661	25.801506969133	1
32	13661	25.801506969133	0
32	13763	26.001204803274	1
32	13765	26.001204803274	2
32	13767	26.001260803274	1
32	13767	26.001260803274	0
32	13887	26.201012305795	1
32	13889	26.201012305795	2
32	13891	26.201068305795	1
32	13891	26.201068305795	0
32	14000	26.40106993512	1
32	14002	26.40106993512	2
32	14004	26.40112593512	1
32	14004	26.40112593512	0
32	14072	26.601276433688	1
32	14074	26.601276433688	2
32	14076	26.601332433688	1
32	14076	26.601332433688	0
32	14148	26.801387618971	1
32	14150	26.801387618971	2
32	14152	26.801443618971	1
32	14152	26.801443618971	0
32	14218	27.001242883434	1
32	14220	27.001242883434	2
32	14222	27.001298883434	1
32	14222	27.001298883434	0
32	14310	27.200934702183	1
32	14312	27.200934702183	2
32	14314	27.200990702183	1
32	14314	27.200990702183	0
32	14414	27.400107185144	1
32	14416	27.400107185144	2
32	14418	27.400163185144	1
32	14418	27.400163185144	0
32	14518	27.600909102711	1
32	14520	27.600909102711	2
32	14522	27.600965102711	1
32	14522	27.600965102711	0
32	14594	27.800515103598	1
32	14596	27.800515103598	2
32	14598	27.800571103598	1
32	14598	27.800571103598	0
32	14700	28.000240302158	1
32	14702	28.000240302158	2
32	14704	28.000296302158	1
32	14704	28.000296302158	0
32	14788	28.20130253402	1
32	14790	28.20130253402	2
32	14792	28.20135853402	1
32	14792	28.20135853402	0
32	14880	28.401202965293	1
32	14882	28.401202965293	2
32	14884	28.401258965293	1
32	14884	28.401258965293	0
32	14988	28.600768014369	1
32	14990	28.600768014369	2
32	14992	28.600824014369	1
32	14992	28.600824014369	0
32	15084	28.800675863501	1
32	15086	28.800675863501	2
32	15088	28.800731863501	1
32	15088	28.800731863501	0
32	15154	29.000713564387	1
32	15156	29.000713564387	2
32	15158	29.000769564387	1
32	15158	29.000769564387	0
32	15254	29.200380216693	1
32	15256	29.200380216693	2
32	15258	29.200436216693	1
32	15258	29.200436216693	0
32	15367	29.400587180308	1
32	15369	29.400587180308	2
32	15371	29.400643180308	1
32	15371	29.400643180308	0
32	15459	29.60063681025	1
32	15461	29.60063681025	2
32	15463	29.60069281025	1
32	15463	29.60069281025	0
32	15571	29.800021956863	1
32	15573	29.800021956863	2
32	15575	29.800077956863	1
32	15575	29.800077956863	0
32	15649	30.001302154406	1
32	15651	30.001302154406	2
32	15653	30.001358154406	1
32	15653	30.001358154406	0
32	15765	30.200042509426	1
32	15767	30.200042509426	2
32	15769	30.200098509426	1
32	15769	30.200098509426	0
32	15861	30.400543802123	1
32	15863	30.400543802123	2
32	15865	30.400599802123	1
32	15865	30.400599802123	0
32	15977	30.600139815255	1
32	15979	30.600139815255	2
32	15981	30.600195815255	1
32	15981	30.600195815255	0
32	16049	30.800287239638	1
32	16051	30.800287239638	2
32	16053	30.800343239638	1
32	16053	30.800343239638	0
32	16147	31.001374363394	1
32	16149	31.001374363394	2
32	16151	31.001430363394	1
32	16151	31.001430363394	0
32	16231	31.200541437127	1
32	16233	31.200541437127	2
32	16235	31.200597437127	1
32	16235	31.200597437127	0
32	16319	31.401063126173	1
32	16321	31.401063126173	2
32	16323	31.401119126173	1
32	16323	31.401119126173	0
32	16427	31.600183983491	1
32	16429	31.600183983491	2
32	16431	31.600239983491	1
32	16431	31.600239983491	0
32	16531	31.800366454252	1
32	16533	31.800366454252	2
32	16535	31.800422454252	1
32	16535	31.800422454252	0
32	16593	32.001285134814	1
32	16595	32.001285134814	2
32	16601	32.001341134814	1
32	16601	32.001341134814	0
32	16677	32.201317306895	1
32	16679	32.201317306895	2
32	16681	32.201373306895	1
32	16681	32.201373306895	0
32	16766	32.400419468086	1
32	16768	32.400419468086	2
32	16770	32.400475468086	1
32	16770	32.400475468086	0
32	16842	32.601410373317	1
32	16844	32.601410373317	2
32	16846	32.601466373317	1
32	16846	32.601466373317	0
32	16922	32.800974311529	1
32	16924	32.800974311529	2
32	16926	32.801030311529	1
32	16926	32.801030311529	0
32	17004	33.000733551548	1
32	17006	33.000733551548	2
32	17008	33.000789551548	1
32	17008	33.000789551548	0
32	17096	33.200551253516	1
32	17098	33.200551253516	2
32	17100	33.200607253516	1
32	17100	33.200607253516	0
32	17200	33.400491995423	1
32	17202	33.400491995423	2
32	17204	33.400547995423	1
32	17204	33.400547995423	0
32	17284	33.601388348937	1
32	17286	33.601388348937	2
32	17288	33.601444348937	1
32	17288	33.601444348937	0
32	17368	33.801011111831	1
32	17370	33.801011111831	2
32	17372	33.801067111831	1
32	17372	33.801067111831	0
32	17458	34.000778898306	1
32	17460	34.000778898306	2
32	17462	34.000834898306	1
32	17462	34.000834898306	0
32	17562	34.200063422479	1
32	17564	34.200063422479	2
32	17566	34.200119422479	1
32	17566	34.200119422479	0
32	17662	34.400361011694	1
32	17664	34.400361011694	2
32	17666	34.400417011694	1
32	17666	34.400417011694	0
32	17762	34.601375457304	1
32	17764	34.601375457304	2
32	17766	34.601431457304	1
32	17766	34.601431457304	0
32	17834	34.800812087748	1
32	17836	34.800812087748	2
32	17838	34.800868087748	1
32	17838	34.800868087748	0
32	17908	35.000521380754	1
32	17910	35.000521380754	2
32	17912	35.000577380754	1
32	17912	35.000577380754	0
32	18012	35.200013781794	1
32	18014	35.200013781794	2
32	18016	35.200069781794	1
32	18016	35.200069781794	0
32	18121	35.400369757895	1
32	18123	35.400369757895	2
32	18125	35.400425757895	1
32	18125	35.400425757895	0
32	18225	35.600370747256	1
32	18227	35.600370747256	2
32	18229	35.600426747256	1
32	18229	35.600426747256	0
32	18309	35.800248916396	1
32	18311	35.800248916396	2
32	18313	35.800304916396	1
32	18313	35.800304916396	0
32	18415	36.00050309578	1
32	18417	36.00050309578	2
32	18419	36.00055909578	1
32	18419	36.00055909578	0
32	18515	36.20029552987	1
32	18517	36.20029552987	2
32	18519	36.20035152987	1
32	18519	36.20035152987	0
32	18603	36.400091731406	1
32	18605	36.400091731406	2
32	18607	36.400147731406	1
32	18607	36.400147731406	0
32	18715	36.600142858907	1
32	18717	36.600142858907	2
32	18719	36.600198858907	1
32	18719	36.600198858907	0
32	18799	36.800724394267	1
32	18801	36.800724394267	2
32	18803	36.800780394267	1
32	18803	36.800780394267	0
32	18913	37.00010158837	1
32	18915	37.00010158837	2
32	18917	37.00015758837	1
32	18917	37.00015758837	0
32	19009	37.20136376561	1
32	19011	37.20136376561	2
32	19013	37.20141976561	1
32	19013	37.20141976561	0
32	19081	37.400300559053	1
32	19083	37.400300559053	2
32	19085	37.400356559053	1
32	19085	37.400356559053	0
32	19181	37.600676976337	1
32	19183	37.600676976337	2
32	19185	37.600732976337	1
32	19185	37.600732976337	0
32	19297	37.800604724544	1
32	19299	37.800604724544	2
32	19301	37.800660724544	1
32	19301	37.800660724544	0
32	19387	38.000424867504	1
32	19389	38.000424867504	2
32	19391	38.000480867504	1
32	19391	38.000480867504	0
32	19467	38.200471812419	1
32	19469	38.200471812419	2
32	19471	38.200527812419	1
32	19471	38.200527812419	0
32	19548	38.400308579803	1
32	19550	38.400308579803	2
32	19552	38.400364579803	1
32	19552	38.400364579803	0
32	19624	38.600408724581	1
32	19626	38.600408724581	2
32	19628	38.600464724581	1
32	19628	38.600464724581	0
32	19708	38.80017077817	1
32	19710	38.80017077817	2
32	19712	38.80022677817	1
32	19712	38.80022677817	0
32	19806	39.001005158984	1
32	19808	39.001005158984	2
32	19810	39.001061158984	1
32	19810	39.001061158984	0
32	19902	39.200939934021	1
32	19904	39.200939934021	2
32	19906	39.200995934021	1
32	19906	39.200995934021	0
32	19982	39.400454313715	1
32	19984	39.400454313715	2
32	19986	39.400510313715	1
32	19986	39.400510313715	0
32	20058	39.601283769305	1
32	20060	39.601283769305	2
32	20062	39.601339769305	1
32	20062	39.601339769305	0
32	20162	39.800563464596	1
32	20164	39.800563464596	2
32	20166	39.800619464596	1
32	20166	39.800619464596	0
32	20240	40.000891171896	1
32	20242	40.000891171896	2
32	20244	40.000947171896	1
32	20244	40.000947171896	0
32	20380	40.20076295527	1
32	20382	40.20076295527	2
32	20384	40.20081895527	1
32	20384	40.20081895527	0
32	20460	40.400474041172	1
32	20462	40.400474041172	2
32	20464	40.400530041172	1
32	20464	40.400530041172	0
32	20552	40.601355944369	1
32	20554	40.601355944369	2
32	20556	40.601411944369	1
32	20556	40.601411944369	0
32	20636	40.801236960389	1
32	20638	40.801236960389	2
32	20640	40.801292960389	1
32	20640	40.801292960389	0
32	20738	41.001226637641	1
32	20740	41.001226637641	2
32	20742	41.001282637641	1
32	20742	41.001282637641	0
32	20818	41.201391670927	1
32	20820	41.201391670927	2
32	20822	41.201447670927	1
32	20822	41.201447670927	0
32	20915	41.400003620199	1
32	20917	41.400003620199	2
32	20919	41.400059620199	1
32	20919	41.400059620199	0
