version 2
run Wireless08-0-20170209-11:59:11-9944
attr configname Wireless08
attr datetime 20170209-11:59:11
attr experiment Wireless08
attr inifile omnetpp.ini
attr iterationvars ""
attr iterationvars2 $repetition=0
attr measurement ""
attr network Base
attr processid 9944
attr repetition 0
attr replication #0
attr resultdir results
attr runnumber 0
attr seedset 0
param *.configurator.config "xml(\"<config><interface hosts='**' address='10.0.0.x' netmask='255.255.255.0'/><autoroute metric='errorRate'/></config>\")"
param *.configurator.optimizeRoutes false
param *.host*.**.bitrate 1Mbps
param *.host*.energyStorageType "\"IdealEnergyStorage\""
param *.host*.forwarding true
param *.host*.networkLayer.arpType "\"GlobalARP\""
param *.host*.routingTable.netmaskRoutes "\"\""
param *.host*.wlan[0].mac.fullDuplex true
param *.host*.wlan[0].mac.useAck true
param *.host*.wlan[0].macType "\"CsmaCaMac\""
param *.host*.wlan[0].radio.displayInterferenceRange false
param *.host*.wlan[0].radio.energyConsumer transmitterIdlePowerConsumption 2mW
param *.host*.wlan[0].radio.energyConsumer.offPowerConsumption 0mW
param *.host*.wlan[0].radio.energyConsumer.receiverBusyPowerConsumption 5mW
param *.host*.wlan[0].radio.energyConsumer.receiverIdlePowerConsumption 2mW
param *.host*.wlan[0].radio.energyConsumer.receiverReceivingPowerConsumption 10mW
param *.host*.wlan[0].radio.energyConsumer.sleepPowerConsumption 1mW
param *.host*.wlan[0].radio.energyConsumer.switchingPowerConsumption 1mW
param *.host*.wlan[0].radio.energyConsumer.transmitterTransmittingPowerConsumption 100mW
param *.host*.wlan[0].radio.energyConsumerType "\"StateBasedEnergyConsumer\""
param *.host*.wlan[0].radio.receiver.ignoreInterference false
param *.host*.wlan[0].radio.transmitter.communicationRange 250m
param *.host*.wlan[0].radio.transmitter.interferenceRange 500m
param *.host*.wlan[0].radioType "\"IdealRadio\""
param *.host*.wlan[0].typename "\"WirelessNic\""
param *.hostM0.numUdpApps 1
param *.hostM0.udpApp[0].destAddresses "\"hostM1\""
param *.hostM0.udpApp[0].destPort 5000
param *.hostM0.udpApp[0].messageLength 1000B
param *.hostM0.udpApp[0].packetName "\"UDPData\""
param *.hostM0.udpApp[0].sendInterval exponential(12ms)
param *.hostM0.udpApp[0].typename "\"UDPBasicApp\""
param *.hostM0.wlan[0].radio.displayInterferenceRange true
param *.hostM1.numUdpApps 1
param *.hostM1.udpApp[0].localPort 5000
param *.hostM1.udpApp[0].typename "\"UDPSink\""
param *.hostM1.wlan[0].radio.displayCommunicationRange true
param *.hostS00.wlan[0].radio.displayCommunicationRange true
param *.visualizer.dataLinkVisualizer.packetNameFilter "\"\""
param *.visualizer.mediumVisualizer.displaySignals true
param *.visualizer.mediumVisualizer.signalPropagationUpdateInterval 100ns
param *.visualizer.networkRouteVisualizer.packetNameFilter "\"UDPData*\""
param *.visualizer.physicalLinkVisualizer.packetNameFilter "\"UDPData*\""
param *.visualizer.sceneVisualizer.descriptionFigure "\"title\""
param Base.hostType "\"WirelessHost\""
param Base.mediumType "\"IdealRadioMedium\""

vector 114  Base.hostM0.energyStorage  powerConsumption:vector  ETV
attr interpolationmode  sample-hold
attr source  powerConsumptionChanged
attr title  "Power consumption, vector"
vector 133  Base.hostM1.energyStorage  powerConsumption:vector  ETV
attr interpolationmode  sample-hold
attr source  powerConsumptionChanged
attr title  "Power consumption, vector"
vector 151  Base.hostS00.energyStorage  powerConsumption:vector  ETV
attr interpolationmode  sample-hold
attr source  powerConsumptionChanged
attr title  "Power consumption, vector"
vector 161  Base.hostS01.energyStorage  powerConsumption:vector  ETV
attr interpolationmode  sample-hold
attr source  powerConsumptionChanged
attr title  "Power consumption, vector"
vector 171  Base.hostS02.energyStorage  powerConsumption:vector  ETV
attr interpolationmode  sample-hold
attr source  powerConsumptionChanged
attr title  "Power consumption, vector"
vector 129  Base.hostM0.wlan[0].radio  radioMode:vector  ETV
attr interpolationmode  sample-hold
attr source  radioModeChanged
attr title  "Radio mode, vector"
vector 147  Base.hostM1.wlan[0].radio  radioMode:vector  ETV
attr interpolationmode  sample-hold
attr source  radioModeChanged
attr title  "Radio mode, vector"
vector 157  Base.hostS00.wlan[0].radio  radioMode:vector  ETV
attr interpolationmode  sample-hold
attr source  radioModeChanged
attr title  "Radio mode, vector"
vector 167  Base.hostS01.wlan[0].radio  radioMode:vector  ETV
attr interpolationmode  sample-hold
attr source  radioModeChanged
attr title  "Radio mode, vector"
vector 177  Base.hostS02.wlan[0].radio  radioMode:vector  ETV
attr interpolationmode  sample-hold
attr source  radioModeChanged
attr title  "Radio mode, vector"
vector 130  Base.hostM0.wlan[0].radio  receptionState:vector  ETV
attr interpolationmode  sample-hold
attr source  receptionStateChanged
attr title  "Radio reception state, vector"
vector 148  Base.hostM1.wlan[0].radio  receptionState:vector  ETV
attr interpolationmode  sample-hold
attr source  receptionStateChanged
attr title  "Radio reception state, vector"
vector 158  Base.hostS00.wlan[0].radio  receptionState:vector  ETV
attr interpolationmode  sample-hold
attr source  receptionStateChanged
attr title  "Radio reception state, vector"
vector 168  Base.hostS01.wlan[0].radio  receptionState:vector  ETV
attr interpolationmode  sample-hold
attr source  receptionStateChanged
attr title  "Radio reception state, vector"
vector 178  Base.hostS02.wlan[0].radio  receptionState:vector  ETV
attr interpolationmode  sample-hold
attr source  receptionStateChanged
attr title  "Radio reception state, vector"
vector 118  Base.hostM0.udpApp[0]  sentPk:vector(packetBytes)  ETV
attr interpolationmode  none
attr source  sentPk
attr title  "packets sent, vector(packetBytes)"
vector 121  Base.hostM0.udp  sentPk:vector(packetBytes)  ETV
attr interpolationmode  none
attr source  sentPk
attr title  "packets sent, vector(packetBytes)"
vector 116  Base.hostM0.energyStorage  residualCapacity:vector  ETV
attr interpolationmode  linear
attr source  residualCapacityChanged
attr title  "Residual capacity, vector"
vector 131  Base.hostM0.wlan[0].radio  transmissionState:vector  ETV
attr interpolationmode  sample-hold
attr source  transmissionStateChanged
attr title  "Radio transmission state, vector"
vector 163  Base.hostS01.energyStorage  residualCapacity:vector  ETV
attr interpolationmode  linear
attr source  residualCapacityChanged
attr title  "Residual capacity, vector"
vector 153  Base.hostS00.energyStorage  residualCapacity:vector  ETV
attr interpolationmode  linear
attr source  residualCapacityChanged
attr title  "Residual capacity, vector"
vector 173  Base.hostS02.energyStorage  residualCapacity:vector  ETV
attr interpolationmode  linear
attr source  residualCapacityChanged
attr title  "Residual capacity, vector"
vector 135  Base.hostM1.energyStorage  residualCapacity:vector  ETV
attr interpolationmode  linear
attr source  residualCapacityChanged
attr title  "Residual capacity, vector"
vector 159  Base.hostS00.wlan[0].radio  transmissionState:vector  ETV
attr interpolationmode  sample-hold
attr source  transmissionStateChanged
attr title  "Radio transmission state, vector"
vector 140  Base.hostM1.udp  rcvdPk:vector(packetBytes)  ETV
attr interpolationmode  none
attr source  rcvdPk
attr title  "packets received, vector(packetBytes)"
vector 141  Base.hostM1.udp  passedUpPk:vector(count)  ETV
attr interpolationmode  none
attr title  "packets passed up, vector(count)"
vector 136  Base.hostM1.udpApp[0]  rcvdPk:vector(packetBytes)  ETV
attr interpolationmode  none
attr source  rcvdPk
attr title  "packets received, vector(packetBytes)"
vector 137  Base.hostM1.udpApp[0]  endToEndDelay:vector  ETV
attr interpolationmode  none
attr source  messageAge(rcvdPk)
attr title  "end-to-end delay, vector"
attr unit  s
vector 138  Base.hostM1.udpApp[0]  rcvdPkSeqNo:vector  ETV
attr interpolationmode  none
attr source  appPkSeqNo(rcvdPk)
attr title  "received packet sequence number, vector"
vector 149  Base.hostM1.wlan[0].radio  transmissionState:vector  ETV
attr interpolationmode  sample-hold
attr source  transmissionStateChanged
attr title  "Radio transmission state, vector"
114	0	0	0
116	22	0.022885250545	-4.577050109e-005
116	32	0.031173250545	-0.00087457050109
116	45	0.031184595185	-0.00087459319037
116	52	0.031248595185	-0.00087523319037
116	62	0.031438595185	-0.00087561319037
116	69	0.039726595185	-0.00095849319037
116	81	0.039737929441	-0.000958515858882
116	88	0.039801929441	-0.000958835858882
116	90	0.040131929441	-0.000959495858882
116	102	0.048419929441	-0.001788295858882
116	115	0.048431274081	-0.001788318548162
116	122	0.048495274081	-0.001788958548162
116	132	0.048645274081	-0.001789258548162
116	149	0.056933274081	-0.001872138548162
116	161	0.056944608337	-0.001872161216674
116	168	0.057008608337	-0.001872481216674
116	170	0.057438608337	-0.001873341216674
116	178	0.065726608337	-0.002702141216674
116	191	0.065737952977	-0.002702163905954
116	198	0.065801952977	-0.002702803905954
116	208	0.066171952977	-0.002703543905954
116	221	0.074459952977	-0.002786423905954
116	233	0.074471287233	-0.002786446574466
116	240	0.074535287233	-0.002786766574466
116	242	0.074885287233	-0.002787466574466
116	250	0.083173287233	-0.003616266574466
116	263	0.083184631873	-0.003616289263746
116	270	0.083248631873	-0.003616929263746
116	276	0.083298631873	-0.003617029263746
116	288	0.091586631873	-0.004445829263746
116	301	0.091597976513	-0.004445851953026
116	308	0.091661976513	-0.004446491953026
116	314	0.092051976513	-0.004447271953026
116	326	0.100339976513	-0.005276071953026
116	339	0.100351321153	-0.005276094642306
116	346	0.100415321153	-0.005276734642306
116	356	0.100845321153	-0.005277594642306
116	377	0.109133321153	-0.006106394642306
116	387	0.109297321153	-0.006106722642306
116	395	0.117585321153	-0.006935522642306
116	408	0.117596665793	-0.006935545331586
116	415	0.117660665793	-0.006936185331586
116	425	0.117890665793	-0.006936645331586
116	438	0.126178665793	-0.007019525331586
116	450	0.126190000049	-0.007019548000098
116	457	0.126254000049	-0.007019868000098
116	460	0.126504000049	-0.007020368000098
116	468	0.134792000049	-0.007849168000098
116	481	0.134803344689	-0.007849190689378
116	488	0.134867344689	-0.007849830689378
116	498	0.135317344689	-0.007850730689378
116	515	0.143605344689	-0.007933610689378
116	527	0.143616678945	-0.00793363335789
116	534	0.143680678945	-0.00793395335789
116	541	0.144190689329	-0.007934973378658
116	550	0.152478689329	-0.008017853378658
116	562	0.152490023585	-0.00801787604717
116	569	0.152554023585	-0.00801819604717
116	572	0.152604023585	-0.00801829604717
116	592	0.160892023585	-0.00884709604717
116	605	0.160903368225	-0.00884711873645
116	612	0.160967368225	-0.00884775873645
116	618	0.161357368225	-0.00884853873645
116	630	0.169645368225	-0.00967733873645
116	643	0.169656712865	-0.00967736142573
116	650	0.169720712865	-0.00967800142573
116	660	0.169950712865	-0.00967846142573
116	669	0.178238712865	-0.00976134142573
116	681	0.178250047121	-0.009761364094242
116	688	0.178314047121	-0.009761684094242
116	695	0.178884057505	-0.00976282411501
116	704	0.187172057505	-0.00984570411501
116	716	0.187183391761	-0.009845726783522
116	723	0.187247391761	-0.009846046783522
116	726	0.187317391761	-0.009846186783522
116	742	0.195605391761	-0.010674986783522
116	755	0.195616736401	-0.010675009472802
116	762	0.195680736401	-0.010675649472802
116	772	0.195790736401	-0.010675869472802
116	781	0.204078736401	-0.010758749472802
116	793	0.204090070657	-0.010758772141314
116	800	0.204154070657	-0.010759092141314
116	803	0.204424070657	-0.010759632141314
116	811	0.212712070657	-0.011588432141314
116	824	0.212723415297	-0.011588454830594
116	831	0.212787415297	-0.011589094830594
116	841	0.213117415297	-0.011589754830594
116	850	0.221405415297	-0.011672634830594
116	862	0.221416749553	-0.011672657499106
116	869	0.221480749553	-0.011672977499106
116	872	0.221530749553	-0.011673077499106
116	880	0.229818749553	-0.012501877499106
116	893	0.229830094193	-0.012501900188386
116	900	0.229894094193	-0.012502540188386
116	906	0.230004094193	-0.012502760188386
116	918	0.238292094193	-0.013331560188386
116	931	0.238303438833	-0.013331582877666
116	938	0.238367438833	-0.013332222877666
116	944	0.238617438833	-0.013332722877666
116	956	0.246905438833	-0.014161522877666
116	969	0.246916783473	-0.014161545566946
116	976	0.246980783473	-0.014162185566946
116	986	0.247110783473	-0.014162445566946
116	999	0.255398783473	-0.014245325566946
116	1011	0.255410117729	-0.014245348235458
116	1018	0.255474117729	-0.014245668235458
116	1021	0.255924117729	-0.014246568235458
116	1029	0.264212117729	-0.015075368235458
116	1046	0.264223462369	-0.015075390924738
116	1053	0.264287462369	-0.015076030924738
116	1063	0.264417462369	-0.015076290924738
116	1072	0.272705462369	-0.015159170924738
116	1084	0.272716796625	-0.01515919359325
116	1091	0.272780796625	-0.01515951359325
116	1098	0.272990807009	-0.015159933614018
116	1107	0.281278807009	-0.015242813614018
116	1119	0.281290141265	-0.01524283628253
116	1126	0.281354141265	-0.01524315628253
116	1133	0.281704151649	-0.015243856303298
116	1142	0.289992151649	-0.015326736303298
116	1154	0.290003485905	-0.01532675897181
116	1161	0.290067485905	-0.01532707897181
116	1168	0.290177496289	-0.015327298992578
116	1177	0.298465496289	-0.015410178992578
116	1189	0.298476830545	-0.01541020166109
116	1196	0.298540830545	-0.01541052166109
116	1199	0.298890830545	-0.01541122166109
116	1207	0.307178830545	-0.01624002166109
116	1220	0.307190175185	-0.01624004435037
116	1227	0.307254175185	-0.01624068435037
116	1237	0.307564175185	-0.01624130435037
116	1246	0.315852175185	-0.01632418435037
116	1258	0.315863509441	-0.016324207018882
116	1265	0.315927509441	-0.016324527018882
116	1268	0.316297509441	-0.016325267018882
116	1276	0.324585509441	-0.017154067018882
116	1289	0.324596854081	-0.017154089708162
116	1296	0.324660854081	-0.017154729708162
116	1302	0.324810854081	-0.017155029708162
116	1314	0.333098854081	-0.017983829708162
116	1327	0.333110198721	-0.017983852397442
116	1334	0.333174198721	-0.017984492397442
116	1344	0.333224198721	-0.017984592397442
116	1353	0.341512198721	-0.018067472397442
116	1365	0.341523532977	-0.018067495065954
116	1372	0.341587532977	-0.018067815065954
116	1379	0.341737543361	-0.018068115086722
116	1388	0.350025543361	-0.018150995086722
116	1400	0.350036877617	-0.018151017755234
116	1407	0.350100877617	-0.018151337755234
116	1414	0.350150888001	-0.018151437776002
116	1423	0.358438888001	-0.018234317776002
116	1435	0.358450222257	-0.018234340444514
116	1442	0.358514222257	-0.018234660444514
116	1444	0.358924222257	-0.018235480444514
116	1460	0.367212222257	-0.019064280444514
116	1473	0.367223566897	-0.019064303133794
116	1480	0.367287566897	-0.019064943133794
116	1486	0.367377566897	-0.019065123133794
116	1494	0.375665566897	-0.019893923133794
116	1507	0.375676911537	-0.019893945823074
116	1514	0.375740911537	-0.019894585823074
116	1524	0.375990911537	-0.019895085823074
116	1533	0.384278911537	-0.019977965823074
116	1545	0.384290245793	-0.019977988491586
116	1552	0.384354245793	-0.019978308491586
116	1555	0.384544245793	-0.019978688491586
116	1563	0.392832245793	-0.020807488491586
116	1576	0.392843590433	-0.020807511180866
116	1583	0.392907590433	-0.020808151180866
116	1589	0.393137590433	-0.020808611180866
116	1597	0.401425590433	-0.021637411180866
116	1610	0.401436935073	-0.021637433870146
116	1617	0.401500935073	-0.021638073870146
116	1623	0.401550935073	-0.021638173870146
116	1631	0.409838935073	-0.022466973870146
116	1644	0.409850279713	-0.022466996559426
116	1651	0.409914279713	-0.022467636559426
116	1661	0.410164279713	-0.022468136559426
116	1686	0.418452279713	-0.022551016559426
116	1698	0.418463613969	-0.022551039227938
116	1705	0.418527613969	-0.022551359227938
116	1708	0.418637613969	-0.022551579227938
116	1724	0.426925613969	-0.023380379227938
116	1737	0.426936958609	-0.023380401917218
116	1744	0.427000958609	-0.023381041917218
116	1750	0.427110958609	-0.023381261917218
116	1758	0.435398958609	-0.024210061917218
116	1771	0.435410303249	-0.024210084606498
116	1778	0.435474303249	-0.024210724606498
116	1784	0.435864303249	-0.024211504606498
116	1796	0.444152303249	-0.025040304606498
116	1809	0.444163647889	-0.025040327295778
116	1816	0.444227647889	-0.025040967295778
116	1822	0.444457647889	-0.025041427295778
116	1834	0.452745647889	-0.025870227295778
116	1847	0.452756992529	-0.025870249985058
116	1854	0.452820992529	-0.025870889985058
116	1864	0.452950992529	-0.025871149985058
116	1881	0.461238992529	-0.025954029985058
116	1893	0.461250326785	-0.02595405265357
116	1900	0.461314326785	-0.02595437265357
116	1907	0.461404337169	-0.025954552674338
116	1916	0.469692337169	-0.026037432674338
116	1928	0.469703671425	-0.02603745534285
116	1935	0.469767671425	-0.02603777534285
116	1938	0.469817671425	-0.02603787534285
116	1950	0.478105671425	-0.02686667534285
116	1963	0.478117016065	-0.02686669803213
116	1970	0.478181016065	-0.02686733803213
116	1980	0.478351016065	-0.02686767803213
116	1993	0.486639016065	-0.02695055803213
116	2005	0.486650350321	-0.026950580700642
116	2012	0.486714350321	-0.026950900700642
116	2019	0.487144360705	-0.02695176072141
116	2032	0.495432360705	-0.02703464072141
116	2044	0.495443694961	-0.027034663389922
116	2051	0.495507694961	-0.027034983389922
116	2058	0.495817705345	-0.02703560341069
116	2067	0.504105705345	-0.02711848341069
116	2079	0.504117039601	-0.027118506079202
116	2086	0.504181039601	-0.027118826079202
116	2093	0.504711049985	-0.02711988609997
116	2106	0.512999049985	-0.02720276609997
116	2118	0.513010384241	-0.027202788768482
116	2125	0.513074384241	-0.027203108768482
116	2128	0.513164384241	-0.027203288768482
116	2140	0.521452384241	-0.028032088768482
116	2153	0.521463728881	-0.028032111457762
116	2160	0.521527728881	-0.028032751457762
116	2166	0.521737728881	-0.028033171457762
116	2174	0.530025728881	-0.028861971457762
116	2187	0.530037073521	-0.028861994147042
116	2194	0.530101073521	-0.028862634147042
116	2204	0.530311073521	-0.028863054147042
116	2213	0.538599073521	-0.028945934147042
116	2225	0.538610407777	-0.028945956815554
116	2232	0.538674407777	-0.028946276815554
116	2235	0.538884407777	-0.028946696815554
116	2243	0.547172407777	-0.029775496815554
116	2256	0.547183752417	-0.029775519504834
116	2263	0.547247752417	-0.029776159504834
116	2269	0.547337752417	-0.029776339504834
116	2281	0.555625752417	-0.030605139504834
116	2294	0.555637097057	-0.030605162194114
116	2301	0.555701097057	-0.030605802194114
116	2311	0.555811097057	-0.030606022194114
116	2328	0.564099097057	-0.030688902194114
116	2340	0.564110431313	-0.030688924862626
116	2347	0.564174431313	-0.030689244862626
116	2354	0.564284441697	-0.030689464883394
116	2363	0.572572441697	-0.030772344883394
116	2375	0.572583775953	-0.030772367551906
116	2382	0.572647775953	-0.030772687551906
116	2389	0.572917786337	-0.030773227572674
116	2398	0.581205786337	-0.030856107572674
116	2410	0.581217120593	-0.030856130241186
116	2417	0.581281120593	-0.030856450241186
116	2420	0.581591120593	-0.030857070241186
116	2432	0.589879120593	-0.031685870241186
116	2445	0.589890465233	-0.031685892930466
116	2452	0.589954465233	-0.031686532930466
116	2462	0.590224465233	-0.031687072930466
116	2475	0.598512465233	-0.031769952930466
116	2487	0.598523799489	-0.031769975598978
116	2494	0.598587799489	-0.031770295598978
116	2497	0.599057799489	-0.031771235598978
116	2509	0.607345799489	-0.032600035598978
116	2522	0.607357144129	-0.032600058288258
116	2529	0.607421144129	-0.032600698288258
116	2539	0.607791144129	-0.032601438288258
116	2548	0.616079144129	-0.032684318288258
116	2560	0.616090478385	-0.03268434095677
116	2567	0.616154478385	-0.03268466095677
116	2574	0.616644478385	-0.03268564095677
116	2582	0.624932478385	-0.03351444095677
116	2595	0.624943823025	-0.03351446364605
116	2602	0.625007823025	-0.03351510364605
116	2608	0.625077823025	-0.03351524364605
116	2616	0.633365823025	-0.03434404364605
116	2629	0.633377167665	-0.03434406633533
116	2636	0.633441167665	-0.03434470633533
116	2642	0.633491167665	-0.03434480633533
116	2650	0.641779167665	-0.03517360633533
116	2663	0.641790512305	-0.03517362902461
116	2670	0.641854512305	-0.03517426902461
116	2680	0.641984512305	-0.03517452902461
116	2689	0.650272512305	-0.03525740902461
116	2701	0.650283846561	-0.035257431693122
116	2708	0.650347846561	-0.035257751693122
116	2711	0.650897846561	-0.035258851693122
116	2727	0.659185846561	-0.036087651693122
116	2740	0.659197191201	-0.036087674382402
116	2747	0.659261191201	-0.036088314382402
116	2757	0.659451191201	-0.036088694382402
116	2766	0.667739191201	-0.036171574382402
116	2778	0.667750525457	-0.036171597050914
116	2785	0.667814525457	-0.036171917050914
116	2788	0.668164525457	-0.036172617050914
116	2800	0.676452525457	-0.037001417050914
116	2813	0.676463870097	-0.037001439740194
116	2820	0.676527870097	-0.037002079740194
116	2830	0.676737870097	-0.037002499740194
116	2847	0.685025870097	-0.037085379740194
116	2859	0.685037204353	-0.037085402408706
116	2866	0.685101204353	-0.037085722408706
116	2869	0.685651204353	-0.037086822408706
116	2881	0.693939204353	-0.037915622408706
116	2894	0.693950548993	-0.037915645097986
116	2901	0.694014548993	-0.037916285097986
116	2907	0.694304548993	-0.037916865097986
116	2915	0.702592548993	-0.038745665097986
116	2928	0.702603893633	-0.038745687787266
116	2935	0.702667893633	-0.038746327787266
116	2949	0.703197893633	-0.038747387787266
116	2962	0.711485893633	-0.038830267787266
116	2974	0.711497227889	-0.038830290455778
116	2981	0.711561227889	-0.038830610455778
116	2988	0.711671238273	-0.038830830476546
116	2997	0.719959238273	-0.038913710476546
116	3009	0.719970572529	-0.038913733145058
116	3016	0.720034572529	-0.038914053145058
116	3019	0.720204572529	-0.038914393145058
116	3027	0.728492572529	-0.039743193145058
116	3040	0.728503917169	-0.039743215834338
116	3047	0.728567917169	-0.039743855834338
116	3057	0.728677917169	-0.039744075834338
116	3070	0.736965917169	-0.039826955834338
116	3082	0.736977251425	-0.03982697850285
116	3089	0.737041251425	-0.03982729850285
116	3096	0.737191261809	-0.039827598523618
116	3105	0.745479261809	-0.039910478523618
116	3117	0.745490596065	-0.03991050119213
116	3124	0.745554596065	-0.03991082119213
116	3127	0.745604596065	-0.03991092119213
116	3135	0.753892596065	-0.04073972119213
116	3148	0.753903940705	-0.04073974388141
116	3155	0.753967940705	-0.04074038388141
116	3161	0.754177940705	-0.04074080388141
116	3173	0.762465940705	-0.04156960388141
116	3186	0.762477285345	-0.04156962657069
116	3193	0.762541285345	-0.04157026657069
116	3199	0.762811285345	-0.04157080657069
116	3207	0.771099285345	-0.04239960657069
116	3220	0.771110629985	-0.04239962925997
116	3227	0.771174629985	-0.04240026925997
116	3237	0.771324629985	-0.04240056925997
116	3250	0.779612629985	-0.04248344925997
116	3262	0.779623964241	-0.042483471928482
116	3269	0.779687964241	-0.042483791928482
116	3272	0.779777964241	-0.042483971928482
116	3280	0.788065964241	-0.043312771928482
116	3293	0.788077308881	-0.043312794617762
116	3300	0.788141308881	-0.043313434617762
116	3306	0.788571308881	-0.043314294617762
116	3318	0.796859308881	-0.044143094617762
116	3331	0.796870653521	-0.044143117307042
116	3338	0.796934653521	-0.044143757307042
116	3344	0.797364653521	-0.044144617307042
116	3356	0.805652653521	-0.044973417307042
116	3369	0.805663998161	-0.044973439996322
116	3376	0.805727998161	-0.044974079996322
116	3386	0.806197998161	-0.044975019996322
116	3395	0.814485998161	-0.045057899996322
116	3407	0.814497332417	-0.045057922664834
116	3414	0.814561332417	-0.045058242664834
116	3421	0.814671332417	-0.045058462664834
116	3444	0.822959332417	-0.045887262664834
116	3445	0.822959342801	-0.045887262716754
116	3456	0.823163332417	-0.045887670695986
116	3464	0.831451332417	-0.046716470695986
116	3477	0.831462677057	-0.046716493385266
116	3484	0.831526677057	-0.046717133385266
116	3494	0.831856677057	-0.046717793385266
116	3507	0.840144677057	-0.046800673385266
116	3519	0.840156011313	-0.046800696053778
116	3526	0.840220011313	-0.046801016053778
116	3533	0.840330021697	-0.046801236074546
116	3542	0.848618021697	-0.046884116074546
116	3554	0.848629355953	-0.046884138743058
116	3561	0.848693355953	-0.046884458743058
116	3568	0.848923366337	-0.046884918763826
116	3585	0.857211366337	-0.046967798763826
116	3597	0.857222700593	-0.046967821432338
116	3604	0.857286700593	-0.046968141432338
116	3607	0.857756700593	-0.046969081432338
116	3623	0.866044700593	-0.047797881432338
116	3636	0.866056045233	-0.047797904121618
116	3643	0.866120045233	-0.047798544121618
116	3649	0.866190045233	-0.047798684121618
116	3661	0.874478045233	-0.048627484121618
116	3674	0.874489389873	-0.048627506810898
116	3681	0.874553389873	-0.048628146810898
116	3687	0.874683389873	-0.048628406810898
116	3699	0.882971389873	-0.049457206810898
116	3712	0.882982734513	-0.049457229500178
116	3719	0.883046734513	-0.049457869500178
116	3729	0.883136734513	-0.049458049500178
116	3738	0.891424734513	-0.049540929500178
116	3750	0.891436068769	-0.04954095216869
116	3757	0.891500068769	-0.04954127216869
116	3760	0.891970068769	-0.04954221216869
116	3772	0.900258068769	-0.05037101216869
116	3785	0.900269413409	-0.05037103485797
116	3792	0.900333413409	-0.05037167485797
116	3798	0.900543413409	-0.05037209485797
116	3806	0.908831413409	-0.05120089485797
116	3819	0.908842758049	-0.05120091754725
116	3826	0.908906758049	-0.05120155754725
116	3832	0.908976758049	-0.05120169754725
116	3840	0.917264758049	-0.05203049754725
116	3853	0.917276102689	-0.05203052023653
116	3860	0.917340102689	-0.05203116023653
116	3866	0.917710102689	-0.05203190023653
116	3874	0.925998102689	-0.05286070023653
116	3887	0.926009447329	-0.05286072292581
116	3894	0.926073447329	-0.05286136292581
116	3904	0.926183447329	-0.05286158292581
116	3917	0.934471447329	-0.05294446292581
116	3929	0.934482781585	-0.052944485594322
116	3936	0.934546781585	-0.052944805594322
116	3939	0.934676781585	-0.052945065594322
116	3951	0.942964781585	-0.053773865594322
116	3964	0.942976126225	-0.053773888283602
116	3971	0.943040126225	-0.053774528283602
116	3981	0.943150126225	-0.053774748283602
116	3990	0.951438126225	-0.053857628283602
116	4002	0.951449460481	-0.053857650952114
116	4009	0.951513460481	-0.053857970952114
116	4012	0.951623460481	-0.053858190952114
116	4020	0.959911460481	-0.054686990952114
116	4033	0.959922805121	-0.054687013641394
116	4040	0.959986805121	-0.054687653641394
116	4050	0.960396805121	-0.054688473641394
116	4059	0.968684805121	-0.054771353641394
116	4071	0.968696139377	-0.054771376309906
116	4078	0.968760139377	-0.054771696309906
116	4081	0.969150139377	-0.054772476309906
116	4097	0.977438139377	-0.055601276309906
116	4110	0.977449484017	-0.055601298999186
116	4117	0.977513484017	-0.055601938999186
116	4127	0.977963484017	-0.055602838999186
116	4144	0.986251484017	-0.055685718999186
116	4156	0.986262818273	-0.055685741667698
116	4163	0.986326818273	-0.055686061667698
116	4170	0.986616828657	-0.055686641688466
116	4179	0.994904828657	-0.055769521688466
116	4191	0.994916162913	-0.055769544356978
116	4198	0.994980162913	-0.055769864356978
116	4201	0.995070162913	-0.055770044356978
116	4209	1.003358162913	-0.056598844356978
116	4222	1.003369507553	-0.056598867046258
116	4229	1.003433507553	-0.056599507046258
116	4239	1.003783507553	-0.056600207046258
116	4248	1.012071507553	-0.056683087046258
116	4260	1.012082841809	-0.05668310971477
116	4267	1.012146841809	-0.05668342971477
116	4270	1.012336841809	-0.05668380971477
116	4286	1.020624841809	-0.05751260971477
116	4299	1.020636186449	-0.05751263240405
116	4306	1.020700186449	-0.05751327240405
116	4312	1.020870186449	-0.05751361240405
116	4324	1.029158186449	-0.05834241240405
116	4337	1.029169531089	-0.05834243509333
116	4344	1.029233531089	-0.05834307509333
116	4350	1.029503531089	-0.05834361509333
116	4358	1.037791531089	-0.05917241509333
116	4371	1.037802875729	-0.05917243778261
116	4378	1.037866875729	-0.05917307778261
116	4384	1.038256875729	-0.05917385778261
116	4404	1.046544875729	-0.06000265778261
116	4417	1.046556220369	-0.06000268047189
116	4424	1.046620220369	-0.06000332047189
116	4430	1.046670220369	-0.06000342047189
116	4442	1.054958220369	-0.06083222047189
116	4455	1.054969565009	-0.06083224316117
116	4462	1.055033565009	-0.06083288316117
116	4468	1.055303565009	-0.06083342316117
116	4480	1.063591565009	-0.06166222316117
116	4493	1.063602909649	-0.06166224585045
116	4500	1.063666909649	-0.06166288585045
116	4506	1.063716909649	-0.06166298585045
116	4514	1.072004909649	-0.06249178585045
116	4527	1.072016254289	-0.06249180853973
116	4534	1.072080254289	-0.06249244853973
116	4544	1.072570254289	-0.06249342853973
116	4553	1.080858254289	-0.06257630853973
116	4565	1.080869588545	-0.062576331208242
116	4572	1.080933588545	-0.062576651208242
116	4575	1.081183588545	-0.062577151208242
116	4583	1.089471588545	-0.063405951208242
116	4596	1.089482933185	-0.063405973897522
116	4603	1.089546933185	-0.063406613897522
116	4613	1.089676933185	-0.063406873897522
116	4622	1.097964933185	-0.063489753897522
116	4634	1.097976267441	-0.063489776566034
116	4641	1.098040267441	-0.063490096566034
116	4644	1.098490267441	-0.063490996566034
116	4652	1.106778267441	-0.064319796566034
116	4665	1.106789612081	-0.064319819255314
116	4672	1.106853612081	-0.064320459255314
116	4678	1.106963612081	-0.064320679255314
116	4686	1.115251612081	-0.065149479255314
116	4699	1.115262956721	-0.065149501944594
116	4706	1.115326956721	-0.065150141944594
116	4712	1.115536956721	-0.065150561944594
116	4724	1.123824956721	-0.065979361944594
116	4737	1.123836301361	-0.065979384633874
116	4744	1.123900301361	-0.065980024633874
116	4750	1.124490301361	-0.065981204633874
116	4762	1.132778301361	-0.066810004633874
116	4775	1.132789646001	-0.066810027323154
116	4782	1.132853646001	-0.066810667323154
116	4792	1.132903646001	-0.066810767323154
116	4805	1.141191646001	-0.066893647323154
116	4817	1.141202980257	-0.066893669991666
116	4824	1.141266980257	-0.066893989991666
116	4827	1.141576980257	-0.066894609991666
116	4843	1.149864980257	-0.067723409991666
116	4856	1.149876324897	-0.067723432680946
116	4863	1.149940324897	-0.067724072680946
116	4869	1.149990324897	-0.067724172680946
116	4877	1.158278324897	-0.068552972680946
116	4890	1.158289669537	-0.068552995370226
116	4897	1.158353669537	-0.068553635370226
116	4907	1.158623669537	-0.068554175370226
116	4916	1.166911669537	-0.068637055370226
116	4928	1.166923003793	-0.068637078038738
116	4935	1.166987003793	-0.068637398038738
116	4942	1.167117014177	-0.068637658059506
116	4951	1.175405014177	-0.068720538059506
116	4963	1.175416348433	-0.068720560728018
116	4970	1.175480348433	-0.068720880728018
116	4977	1.175530358817	-0.068720980748786
116	4986	1.183818358817	-0.068803860748786
116	4998	1.183829693073	-0.068803883417298
116	5005	1.183893693073	-0.068804203417298
116	5016	1.184223703457	-0.068804863438066
116	5029	1.192511703457	-0.068887743438066
116	5041	1.192523037713	-0.068887766106578
116	5048	1.192587037713	-0.068888086106578
116	5051	1.192697037713	-0.068888306106578
116	5067	1.200985037713	-0.069717106106578
116	5080	1.200996382353	-0.069717128795858
116	5087	1.201060382353	-0.069717768795858
116	5093	1.201370382353	-0.069718388795858
116	5105	1.209658382353	-0.070547188795858
116	5118	1.209669726993	-0.070547211485138
116	5125	1.209733726993	-0.070547851485138
116	5135	1.209943726993	-0.070548271485138
116	5148	1.218231726993	-0.070631151485138
116	5160	1.218243061249	-0.07063117415365
116	5167	1.218307061249	-0.07063149415365
116	5170	1.218437061249	-0.07063175415365
116	5186	1.226725061249	-0.07146055415365
116	5199	1.226736405889	-0.07146057684293
116	5206	1.226800405889	-0.07146121684293
116	5216	1.227050405889	-0.07146171684293
116	5229	1.235338405889	-0.07154459684293
116	5241	1.235349740145	-0.071544619511442
116	5248	1.235413740145	-0.071544939511442
116	5251	1.235843740145	-0.071545799511442
116	5259	1.244131740145	-0.072374599511442
116	5272	1.244143084785	-0.072374622200722
116	5279	1.244207084785	-0.072375262200722
116	5289	1.244317084785	-0.072375482200722
116	5306	1.252605084785	-0.072458362200722
116	5318	1.252616419041	-0.072458384869234
116	5325	1.252680419041	-0.072458704869234
116	5332	1.253150419041	-0.072459644869234
116	5344	1.261438419041	-0.073288444869234
116	5357	1.261449763681	-0.073288467558514
116	5364	1.261513763681	-0.073289107558514
116	5370	1.261923763681	-0.073289927558514
116	5378	1.270211763681	-0.074118727558514
116	5391	1.270223108321	-0.074118750247794
116	5398	1.270287108321	-0.074119390247794
116	5408	1.270597108321	-0.074120010247794
116	5417	1.278885108321	-0.074202890247794
116	5429	1.278896442577	-0.074202912916306
116	5436	1.278960442577	-0.074203232916306
116	5443	1.279030452961	-0.074203372937074
116	5452	1.287318452961	-0.074286252937074
116	5464	1.287329787217	-0.074286275605586
116	5471	1.287393787217	-0.074286595605586
116	5478	1.287643797601	-0.074287095626354
116	5491	1.295931797601	-0.074369975626354
116	5503	1.295943131857	-0.074369998294866
116	5510	1.296007131857	-0.074370318294866
116	5513	1.296377131857	-0.074371058294866
116	5525	1.304665131857	-0.075199858294866
116	5538	1.304676476497	-0.075199880984146
116	5545	1.304740476497	-0.075200520984146
116	5555	1.304850476497	-0.075200740984146
116	5564	1.313138476497	-0.075283620984146
116	5576	1.313149810753	-0.075283643652658
116	5583	1.313213810753	-0.075283963652658
116	5586	1.313463810753	-0.075284463652658
116	5594	1.321751810753	-0.076113263652658
116	5607	1.321763155393	-0.076113286341938
116	5614	1.321827155393	-0.076113926341938
116	5624	1.322057155393	-0.076114386341938
116	5633	1.330345155393	-0.076197266341938
116	5645	1.330356489649	-0.07619728901045
116	5652	1.330420489649	-0.07619760901045
116	5659	1.330730500033	-0.076198229031218
116	5668	1.339018500033	-0.076281109031218
116	5680	1.339029834289	-0.07628113169973
116	5687	1.339093834289	-0.07628145169973
116	5694	1.339263834289	-0.07628179169973
116	5713	1.347551834289	-0.07711059169973
116	5714	1.347551844673	-0.07711059175165
116	5729	1.347955844673	-0.07711139975165
116	5742	1.356243844673	-0.07719427975165
116	5754	1.356255178929	-0.077194302420162
116	5761	1.356319178929	-0.077194622420162
116	5764	1.356809178929	-0.077195602420162
116	5780	1.365097178929	-0.078024402420162
116	5793	1.365108523569	-0.078024425109442
116	5800	1.365172523569	-0.078025065109442
116	5810	1.365282523569	-0.078025285109442
116	5823	1.373570523569	-0.078108165109442
116	5835	1.373581857825	-0.078108187777954
116	5842	1.373645857825	-0.078108507777954
116	5849	1.374095868209	-0.078109407798722
116	5858	1.382383868209	-0.078192287798722
116	5870	1.382395202465	-0.078192310467234
116	5877	1.382459202465	-0.078192630467234
116	5884	1.382549212849	-0.078192810488002
116	5893	1.390837212849	-0.078275690488002
116	5905	1.390848547105	-0.078275713156514
116	5912	1.390912547105	-0.078276033156514
116	5919	1.391282557489	-0.078276773177282
116	5932	1.399570557489	-0.078359653177282
116	5944	1.399581891745	-0.078359675845794
116	5951	1.399645891745	-0.078359995845794
116	5958	1.400155902129	-0.078361015866562
116	5967	1.408443902129	-0.078443895866562
116	5979	1.408455236385	-0.078443918535074
116	5986	1.408519236385	-0.078444238535074
116	5993	1.408649236385	-0.078444498535074
116	6008	1.416937236385	-0.079273298535074
116	6009	1.416937246769	-0.079273298586994
116	6024	1.417961246769	-0.079275346586994
116	6033	1.426249246769	-0.079358226586994
116	6045	1.426260581025	-0.079358249255506
116	6052	1.426324581025	-0.079358569255506
116	6059	1.426834591409	-0.079359589276274
116	6076	1.435122591409	-0.079442469276274
116	6088	1.435133925665	-0.079442491944786
116	6095	1.435197925665	-0.079442811944786
116	6102	1.435347936049	-0.079443111965554
116	6111	1.443635936049	-0.079525991965554
116	6123	1.443647270305	-0.079526014634066
116	6130	1.443711270305	-0.079526334634066
116	6137	1.444221280689	-0.079527354654834
116	6146	1.452509280689	-0.079610234654834
116	6158	1.452520614945	-0.079610257323346
116	6165	1.452584614945	-0.079610577323346
116	6168	1.452654614945	-0.079610717323346
116	6184	1.460942614945	-0.080439517323346
116	6197	1.460953959585	-0.080439540012626
116	6204	1.461017959585	-0.080440180012626
116	6214	1.461507959585	-0.080441160012626
116	6231	1.469795959585	-0.081269960012626
116	6245	1.470079959585	-0.081270528012626
116	6254	1.478367959585	-0.081353408012626
116	6266	1.478379293841	-0.081353430681138
116	6273	1.478443293841	-0.081353750681138
116	6276	1.478673293841	-0.081354210681138
116	6284	1.486961293841	-0.082183010681138
116	6297	1.486972638481	-0.082183033370418
116	6304	1.487036638481	-0.082183673370418
116	6310	1.487086638481	-0.082183773370418
116	6318	1.495374638481	-0.083012573370418
116	6331	1.495385983121	-0.083012596059698
116	6338	1.495449983121	-0.083013236059698
116	6348	1.495879983121	-0.083014096059698
116	6357	1.504167983121	-0.083096976059698
116	6369	1.504179317377	-0.08309699872821
116	6376	1.504243317377	-0.08309731872821
116	6383	1.504373327761	-0.083097578748978
116	6400	1.512661327761	-0.083180458748978
116	6412	1.512672662017	-0.08318048141749
116	6419	1.512736662017	-0.08318080141749
116	6422	1.512986662017	-0.08318130141749
116	6438	1.521274662017	-0.08401010141749
116	6451	1.521286006657	-0.08401012410677
116	6458	1.521350006657	-0.08401076410677
116	6468	1.521720006657	-0.08401150410677
116	6485	1.530008006657	-0.08484030410677
116	6495	1.530352006657	-0.08484099210677
116	6503	1.538640006657	-0.08566979210677
116	6516	1.538651351297	-0.08566981479605
116	6523	1.538715351297	-0.08567045479605
116	6529	1.538925351297	-0.08567087479605
116	6541	1.547213351297	-0.08649967479605
116	6554	1.547224695937	-0.08649969748533
116	6561	1.547288695937	-0.08650033748533
116	6571	1.547558695937	-0.08650087748533
116	6580	1.555846695937	-0.08658375748533
116	6592	1.555858030193	-0.086583780153842
116	6599	1.555922030193	-0.086584100153842
116	6602	1.556372030193	-0.086585000153842
116	6614	1.564660030193	-0.087413800153842
116	6627	1.564671374833	-0.087413822843122
116	6634	1.564735374833	-0.087414462843122
116	6644	1.565325374833	-0.087415642843122
116	6660	1.573613374833	-0.088244442843122
116	6673	1.573624719473	-0.088244465532402
116	6680	1.573688719473	-0.088245105532402
116	6686	1.573778719473	-0.088245285532402
116	6694	1.582066719473	-0.089074085532402
116	6707	1.582078064113	-0.089074108221682
116	6714	1.582142064113	-0.089074748221682
116	6724	1.582212064113	-0.089074888221682
116	6749	1.590500064113	-0.089157768221682
116	6761	1.590511398369	-0.089157790890194
116	6768	1.590575398369	-0.089158110890194
116	6775	1.591105408753	-0.089159170910962
116	6784	1.599393408753	-0.089242050910962
116	6796	1.599404743009	-0.089242073579474
116	6803	1.599468743009	-0.089242393579474
116	6806	1.599578743009	-0.089242613579474
116	6818	1.607866743009	-0.090071413579474
116	6831	1.607878087649	-0.090071436268754
116	6838	1.607942087649	-0.090072076268754
116	6844	1.608032087649	-0.090072256268754
116	6856	1.616320087649	-0.090901056268754
116	6869	1.616331432289	-0.090901078958034
116	6876	1.616395432289	-0.090901718958034
116	6882	1.616465432289	-0.090901858958034
116	6890	1.624753432289	-0.091730658958034
116	6903	1.624764776929	-0.091730681647314
116	6910	1.624828776929	-0.091731321647314
116	6916	1.624958776929	-0.091731581647314
116	6936	1.633246776929	-0.092560381647314
116	6949	1.633258121569	-0.092560404336594
116	6956	1.633322121569	-0.092561044336594
116	6962	1.633472121569	-0.092561344336594
116	6974	1.641760121569	-0.093390144336594
116	6987	1.641771466209	-0.093390167025874
116	6994	1.641835466209	-0.093390807025874
116	7004	1.642465466209	-0.093392067025874
116	7017	1.650753466209	-0.093474947025874
116	7029	1.650764800465	-0.093474969694386
116	7036	1.650828800465	-0.093475289694386
116	7039	1.651018800465	-0.093475669694386
116	7055	1.659306800465	-0.094304469694386
116	7068	1.659318145105	-0.094304492383666
116	7075	1.659382145105	-0.094305132383666
116	7085	1.659492145105	-0.094305352383666
116	7094	1.667780145105	-0.094388232383666
116	7106	1.667791479361	-0.094388255052178
116	7113	1.667855479361	-0.094388575052178
116	7116	1.668045479361	-0.094388955052178
116	7128	1.676333479361	-0.095217755052178
116	7141	1.676344824001	-0.095217777741458
116	7148	1.676408824001	-0.095218417741458
116	7158	1.676458824001	-0.095218517741458
116	7167	1.684746824001	-0.095301397741458
116	7179	1.684758158257	-0.09530142040997
116	7186	1.684822158257	-0.09530174040997
116	7189	1.685092158257	-0.09530228040997
116	7201	1.693380158257	-0.09613108040997
116	7214	1.693391502897	-0.09613110309925
116	7221	1.693455502897	-0.09613174309925
116	7227	1.693645502897	-0.09613212309925
116	7243	1.701933502897	-0.09696092309925
116	7256	1.701944847537	-0.09696094578853
116	7263	1.702008847537	-0.09696158578853
116	7273	1.702278847537	-0.09696212578853
116	7286	1.710566847537	-0.09704500578853
116	7298	1.710578181793	-0.097045028457042
116	7305	1.710642181793	-0.097045348457042
116	7308	1.710812181793	-0.097045688457042
116	7320	1.719100181793	-0.097874488457042
116	7333	1.719111526433	-0.097874511146322
116	7340	1.719175526433	-0.097875151146322
116	7346	1.719265526433	-0.097875331146322
116	7354	1.727553526433	-0.098704131146322
116	7367	1.727564871073	-0.098704153835602
116	7374	1.727628871073	-0.098704793835602
116	7380	1.728138871073	-0.098705813835602
116	7392	1.736426871073	-0.099534613835602
116	7405	1.736438215713	-0.099534636524882
116	7412	1.736502215713	-0.099535276524882
116	7418	1.736832215713	-0.099535936524882
116	7430	1.745120215713	-0.10036473652488
116	7443	1.745131560353	-0.10036475921416
116	7450	1.745195560353	-0.10036539921416
116	7456	1.745265560353	-0.10036553921416
116	7464	1.753553560353	-0.10119433921416
116	7477	1.753564904993	-0.10119436190344
116	7484	1.753628904993	-0.10119500190344
116	7494	1.753918904993	-0.10119558190344
116	7503	1.762206904993	-0.10127846190344
116	7515	1.762218239249	-0.10127848457195
116	7522	1.762282239249	-0.10127880457195
116	7525	1.762692239249	-0.10127962457195
116	7533	1.770980239249	-0.10210842457195
116	7546	1.770991583889	-0.10210844726123
116	7553	1.771055583889	-0.10210908726123
116	7559	1.771285583889	-0.10210954726123
116	7571	1.779573583889	-0.10293834726123
116	7584	1.779584928529	-0.10293836995051
116	7591	1.779648928529	-0.10293900995051
116	7597	1.780238928529	-0.10294018995051
116	7609	1.788526928529	-0.10376898995051
116	7622	1.788538273169	-0.10376901263979
116	7629	1.788602273169	-0.10376965263979
116	7639	1.788692273169	-0.10376983263979
116	7656	1.796980273169	-0.10385271263979
116	7668	1.796991607425	-0.10385273530831
116	7675	1.797055607425	-0.10385305530831
116	7682	1.797185617809	-0.10385331532907
116	7691	1.805473617809	-0.10393619532907
116	7703	1.805484952065	-0.10393621799759
116	7710	1.805548952065	-0.10393653799759
116	7713	1.805678952065	-0.10393679799759
116	7721	1.813966952065	-0.10476559799759
116	7734	1.813978296705	-0.10476562068687
116	7741	1.814042296705	-0.10476626068687
116	7751	1.814432296705	-0.10476704068687
116	7760	1.822720296705	-0.10484992068687
116	7772	1.822731630961	-0.10484994335538
116	7779	1.822795630961	-0.10485026335538
116	7786	1.823105641345	-0.10485088337615
116	7795	1.831393641345	-0.10493376337615
116	7807	1.831404975601	-0.10493378604466
116	7814	1.831468975601	-0.10493410604466
116	7821	1.831778985985	-0.10493472606543
116	7838	1.840066985985	-0.10501760606543
116	7850	1.840078320241	-0.10501762873394
116	7857	1.840142320241	-0.10501794873394
116	7864	1.840652330625	-0.10501896875471
116	7873	1.848940330625	-0.10510184875471
116	7885	1.848951664881	-0.10510187142322
116	7892	1.849015664881	-0.10510219142322
116	7899	1.849505664881	-0.10510317142322
116	7918	1.857793664881	-0.10593197142322
116	7919	1.857793675265	-0.10593197147514
116	7930	1.858457664881	-0.10593329945437
116	7938	1.866745664881	-0.10676209945437
116	7951	1.866757009521	-0.10676212214365
116	7958	1.866821009521	-0.10676276214365
116	7964	1.866991009521	-0.10676310214365
116	7976	1.875279009521	-0.10759190214365
116	7989	1.875290354161	-0.10759192483293
116	7996	1.875354354161	-0.10759256483293
116	8002	1.875964354161	-0.10759378483293
116	8010	1.884252354161	-0.10842258483293
116	8023	1.884263698801	-0.10842260752221
116	8030	1.884327698801	-0.10842324752221
116	8040	1.884677698801	-0.10842394752221
116	8057	1.892965698801	-0.10850682752221
116	8069	1.892977033057	-0.10850685019072
116	8076	1.893041033057	-0.10850717019072
116	8079	1.893231033057	-0.10850755019072
116	8087	1.901519033057	-0.10933635019072
116	8100	1.901530377697	-0.10933637288
116	8107	1.901594377697	-0.10933701288
116	8113	1.901764377697	-0.10933735288
116	8125	1.910052377697	-0.11016615288
116	8138	1.910063722337	-0.11016617556928
116	8145	1.910127722337	-0.11016681556928
116	8151	1.910477722337	-0.11016751556928
116	8163	1.918765722337	-0.11099631556928
116	8176	1.918777066977	-0.11099633825856
116	8183	1.918841066977	-0.11099697825856
116	8189	1.919111066977	-0.11099751825856
116	8201	1.927399066977	-0.11182631825856
116	8214	1.927410411617	-0.11182634094784
116	8221	1.927474411617	-0.11182698094784
116	8227	1.927544411617	-0.11182712094784
116	8239	1.935832411617	-0.11265592094784
116	8252	1.935843756257	-0.11265594363712
116	8259	1.935907756257	-0.11265658363712
116	8269	1.936317756257	-0.11265740363712
116	8278	1.944605756257	-0.11274028363712
116	8290	1.944617090513	-0.11274030630563
116	8297	1.944681090513	-0.11274062630563
116	8300	1.944831090513	-0.11274092630563
116	8308	1.953119090513	-0.11356972630563
116	8321	1.953130435153	-0.11356974899491
116	8328	1.953194435153	-0.11357038899491
116	8334	1.953684435153	-0.11357136899491
116	8342	1.961972435153	-0.11440016899491
116	8355	1.961983779793	-0.11440019168419
116	8362	1.962047779793	-0.11440083168419
116	8372	1.962177779793	-0.11440109168419
116	8389	1.970465779793	-0.11448397168419
116	8401	1.970477114049	-0.11448399435271
116	8408	1.970541114049	-0.11448431435271
116	8411	1.970951114049	-0.11448513435271
116	8423	1.979239114049	-0.11531393435271
116	8436	1.979250458689	-0.11531395704199
116	8443	1.979314458689	-0.11531459704199
116	8453	1.979364458689	-0.11531469704199
116	8462	1.987652458689	-0.11539757704199
116	8474	1.987663792945	-0.1153975997105
116	8481	1.987727792945	-0.1153979197105
116	8484	1.987817792945	-0.1153980997105
116	8496	1.996105792945	-0.1162268997105
116	8509	1.996117137585	-0.11622692239978
116	8516	1.996181137585	-0.11622756239978
116	8522	1.996431137585	-0.11622806239978
116	8542	2.004719137585	-0.11705686239978
116	8555	2.004730482225	-0.11705688508906
116	8562	2.004794482225	-0.11705752508906
116	8572	2.004844482225	-0.11705762508906
116	8589	2.013132482225	-0.11714050508906
116	8601	2.013143816481	-0.11714052775757
116	8608	2.013207816481	-0.11714084775757
116	8611	2.013537816481	-0.11714150775757
116	8619	2.021825816481	-0.11797030775757
116	8632	2.021837161121	-0.11797033044685
116	8639	2.021901161121	-0.11797097044685
116	8649	2.022051161121	-0.11797127044685
116	8658	2.030339161121	-0.11805415044685
116	8670	2.030350495377	-0.11805417311536
116	8677	2.030414495377	-0.11805449311536
116	8684	2.030844505761	-0.11805535313613
116	8693	2.039132505761	-0.11813823313613
116	8705	2.039143840017	-0.11813825580464
116	8712	2.039207840017	-0.11813857580464
116	8719	2.039377850401	-0.11813891582541
116	8732	2.047665850401	-0.11822179582541
116	8744	2.047677184657	-0.11822181849392
116	8751	2.047741184657	-0.11822213849392
116	8754	2.047911184657	-0.11822247849392
116	8762	2.056199184657	-0.11905127849392
116	8775	2.056210529297	-0.1190513011832
116	8786	2.056274529297	-0.1190519411832
116	8796	2.056444529297	-0.1190522811832
116	8816	2.064732529297	-0.1198810811832
116	8829	2.064743873937	-0.11988110387248
116	8836	2.064807873937	-0.11988174387248
116	8846	2.065277873937	-0.11988268387248
116	8867	2.073565873937	-0.11996556387248
116	8879	2.073577208193	-0.11996558654099
116	8886	2.073641208193	-0.11996590654099
116	8893	2.073851218577	-0.11996632656176
116	8906	2.082139218577	-0.12004920656176
116	8918	2.082150552833	-0.12004922923027
116	8925	2.082214552833	-0.12004954923027
116	8928	2.082364552833	-0.12004984923027
116	8936	2.090652552833	-0.12087864923027
116	8949	2.090663897473	-0.12087867191955
116	8956	2.090727897473	-0.12087931191955
116	8962	2.091097897473	-0.12088005191955
116	8970	2.099385897473	-0.12170885191955
116	8983	2.099397242113	-0.12170887460883
116	8990	2.099461242113	-0.12170951460883
116	8996	2.099791242113	-0.12171017460883
116	9004	2.108079242113	-0.12253897460883
116	9017	2.108090586753	-0.12253899729811
116	9024	2.108154586753	-0.12253963729811
116	9030	2.108304586753	-0.12253993729811
116	9038	2.116592586753	-0.12336873729811
116	9051	2.116603931393	-0.12336875998739
116	9058	2.116667931393	-0.12336939998739
116	9064	2.116737931393	-0.12336953998739
116	9072	2.125025931393	-0.12419833998739
116	9085	2.125037276033	-0.12419836267667
116	9092	2.125101276033	-0.12419900267667
116	9102	2.125251276033	-0.12419930267667
116	9111	2.133539276033	-0.12428218267667
116	9123	2.133550610289	-0.12428220534519
116	9130	2.133614610289	-0.12428252534519
116	9137	2.133904620673	-0.12428310536595
116	9154	2.142192620673	-0.12436598536595
116	9166	2.142203954929	-0.12436600803447
116	9173	2.142267954929	-0.12436632803447
116	9176	2.142477954929	-0.12436674803447
116	9192	2.150765954929	-0.12519554803447
116	9205	2.150777299569	-0.12519557072375
116	9212	2.150841299569	-0.12519621072375
116	9218	2.151091299569	-0.12519671072375
116	9226	2.159379299569	-0.12602551072375
116	9239	2.159390644209	-0.12602553341303
116	9246	2.159454644209	-0.12602617341303
116	9256	2.159564644209	-0.12602639341303
116	9269	2.167852644209	-0.12610927341303
116	9281	2.167863978465	-0.12610929608154
116	9288	2.167927978465	-0.12610961608154
116	9291	2.168477978465	-0.12611071608154
116	9303	2.176765978465	-0.12693951608154
116	9316	2.176777323105	-0.12693953877082
116	9323	2.176841323105	-0.12694017877082
116	9333	2.177171323105	-0.12694083877082
116	9346	2.185459323105	-0.12702371877082
116	9358	2.185470657361	-0.12702374143933
116	9365	2.185534657361	-0.12702406143933
116	9372	2.185664667745	-0.1270243214601
116	9385	2.193952667745	-0.1271072014601
116	9397	2.193964002001	-0.12710722412861
116	9404	2.194028002001	-0.12710754412861
116	9407	2.194558002001	-0.12710860412861
116	9415	2.202846002001	-0.12793740412861
116	9428	2.202857346641	-0.12793742681789
116	9435	2.202921346641	-0.12793806681789
116	9445	2.203031346641	-0.12793828681789
116	9454	2.211319346641	-0.12802116681789
116	9466	2.211330680897	-0.1280211894864
116	9473	2.211394680897	-0.1280215094864
116	9476	2.211524680897	-0.1280217694864
116	9484	2.219812680897	-0.1288505694864
116	9497	2.219824025537	-0.12885059217568
116	9504	2.219888025537	-0.12885123217568
116	9510	2.220278025537	-0.12885201217568
116	9522	2.228566025537	-0.12968081217568
116	9535	2.228577370177	-0.12968083486496
116	9542	2.228641370177	-0.12968147486496
116	9552	2.228711370177	-0.12968161486496
116	9561	2.236999370177	-0.12976449486496
116	9573	2.237010704433	-0.12976451753347
116	9580	2.237074704433	-0.12976483753347
116	9587	2.237144714817	-0.12976497755424
116	9596	2.245432714817	-0.12984785755424
116	9608	2.245444049073	-0.12984788022275
116	9615	2.245508049073	-0.12984820022275
116	9618	2.245698049073	-0.12984858022275
116	9626	2.253986049073	-0.13067738022275
116	9639	2.253997393713	-0.13067740291203
116	9646	2.254061393713	-0.13067804291203
116	9652	2.254331393713	-0.13067858291203
116	9660	2.262619393713	-0.13150738291203
116	9673	2.262630738353	-0.13150740560131
116	9680	2.262694738353	-0.13150804560131
116	9690	2.263024738353	-0.13150870560131
116	9699	2.271312738353	-0.13159158560131
116	9711	2.271324072609	-0.13159160826983
116	9718	2.271388072609	-0.13159192826983
116	9729	2.271838082993	-0.13159282829059
116	9738	2.280126082993	-0.13167570829059
116	9750	2.280137417249	-0.13167573095911
116	9757	2.280201417249	-0.13167605095911
116	9760	2.280491417249	-0.13167663095911
116	9768	2.288779417249	-0.13250543095911
116	9781	2.288790761889	-0.13250545364839
116	9788	2.288854761889	-0.13250609364839
116	9794	2.289184761889	-0.13250675364839
116	9802	2.297472761889	-0.13333555364839
116	9815	2.297484106529	-0.13333557633767
116	9822	2.297548106529	-0.13333621633767
116	9828	2.297598106529	-0.13333631633767
116	9836	2.305886106529	-0.13416511633767
116	9849	2.305897451169	-0.13416513902695
116	9856	2.305961451169	-0.13416577902695
116	9866	2.306051451169	-0.13416595902695
116	9879	2.314339451169	-0.13424883902695
116	9891	2.314350785425	-0.13424886169546
116	9898	2.314414785425	-0.13424918169546
116	9901	2.314744785425	-0.13424984169546
116	9909	2.323032785425	-0.13507864169546
116	9922	2.323044130065	-0.13507866438474
116	9929	2.323108130065	-0.13507930438474
116	9935	2.323378130065	-0.13507984438474
116	9943	2.331666130065	-0.13590864438474
116	9956	2.331677474705	-0.13590866707402
116	9963	2.331741474705	-0.13590930707402
116	9969	2.331971474705	-0.13590976707402
116	9981	2.340259474705	-0.13673856707402
116	9994	2.340270819345	-0.1367385897633
116	10001	2.340334819345	-0.1367392297633
116	10011	2.340624819345	-0.1367398097633
116	10020	2.348912819345	-0.1368226897633
116	10032	2.348924153601	-0.13682271243181
116	10039	2.348988153601	-0.13682303243181
116	10046	2.349218163985	-0.13682349245258
116	10063	2.357506163985	-0.13690637245258
116	10075	2.357517498241	-0.13690639512109
116	10082	2.357581498241	-0.13690671512109
116	10085	2.357731498241	-0.13690701512109
116	10101	2.366019498241	-0.13773581512109
116	10114	2.366030842881	-0.13773583781037
116	10121	2.366094842881	-0.13773647781037
116	10131	2.366504842881	-0.13773729781037
116	10144	2.374792842881	-0.13782017781037
116	10156	2.374804177137	-0.13782020047888
116	10163	2.374868177137	-0.13782052047888
116	10166	2.375258177137	-0.13782130047888
116	10174	2.383546177137	-0.13865010047888
116	10187	2.383557521777	-0.13865012316816
116	10194	2.383621521777	-0.13865076316816
116	10204	2.383951521777	-0.13865142316816
116	10217	2.392239521777	-0.13873430316816
116	10229	2.392250856033	-0.13873432583667
116	10236	2.392314856033	-0.13873464583667
116	10239	2.392564856033	-0.13873514583667
116	10247	2.400852856033	-0.13956394583667
116	10260	2.400864200673	-0.13956396852595
116	10267	2.400928200673	-0.13956460852595
116	10277	2.400998200673	-0.13956474852595
116	10290	2.409286200673	-0.13964762852595
116	10302	2.409297534929	-0.13964765119447
116	10309	2.409361534929	-0.13964797119447
116	10316	2.409611545313	-0.13964847121523
116	10325	2.417899545313	-0.13973135121523
116	10337	2.417910879569	-0.13973137388375
116	10344	2.417974879569	-0.13973169388375
116	10347	2.418544879569	-0.13973283388375
116	10355	2.426832879569	-0.14056163388375
116	10368	2.426844224209	-0.14056165657303
116	10375	2.426908224209	-0.14056229657303
116	10381	2.427358224209	-0.14056319657303
116	10389	2.435646224209	-0.14139199657303
116	10402	2.435657568849	-0.14139201926231
116	10409	2.435721568849	-0.14139265926231
116	10415	2.435811568849	-0.14139283926231
116	10423	2.444099568849	-0.14222163926231
116	10436	2.444110913489	-0.14222166195159
116	10443	2.444174913489	-0.14222230195159
116	10453	2.444344913489	-0.14222264195159
116	10462	2.452632913489	-0.14230552195159
116	10474	2.452644247745	-0.1423055446201
116	10481	2.452708247745	-0.1423058646201
116	10488	2.452798258129	-0.14230604464087
116	10497	2.461086258129	-0.14238892464087
116	10509	2.461097592385	-0.14238894730938
116	10516	2.461161592385	-0.14238926730938
116	10519	2.461391592385	-0.14238972730938
116	10531	2.469679592385	-0.14321852730938
116	10544	2.469690937025	-0.14321854999866
116	10551	2.469754937025	-0.14321918999866
116	10557	2.469884937025	-0.14321944999866
116	10569	2.478172937025	-0.14404824999866
116	10582	2.478184281665	-0.14404827268794
116	10589	2.478248281665	-0.14404891268794
116	10599	2.478478281665	-0.14404937268794
116	10608	2.486766281665	-0.14413225268794
116	10620	2.486777615921	-0.14413227535645
116	10627	2.486841615921	-0.14413259535645
116	10630	2.487051615921	-0.14413301535645
116	10638	2.495339615921	-0.14496181535645
116	10651	2.495350960561	-0.14496183804573
116	10658	2.495414960561	-0.14496247804573
116	10668	2.495484960561	-0.14496261804573
116	10677	2.503772960561	-0.14504549804573
116	10689	2.503784294817	-0.14504552071424
116	10696	2.503848294817	-0.14504584071424
116	10699	2.503898294817	-0.14504594071424
116	10711	2.512186294817	-0.14587474071424
116	10724	2.512197639457	-0.14587476340352
116	10731	2.512261639457	-0.14587540340352
116	10737	2.512371639457	-0.14587562340352
116	10749	2.520659639457	-0.14670442340352
116	10762	2.520670984097	-0.1467044460928
116	10769	2.520734984097	-0.1467050860928
116	10775	2.521144984097	-0.1467059060928
116	10791	2.529432984097	-0.1475347060928
116	10804	2.529444328737	-0.14753472878208
116	10811	2.529508328737	-0.14753536878208
116	10821	2.529918328737	-0.14753618878208
116	10838	2.538206328737	-0.14761906878208
116	10850	2.538217662993	-0.14761909145059
116	10857	2.538281662993	-0.14761941145059
116	10860	2.538811662993	-0.14762047145059
116	10872	2.547099662993	-0.14844927145059
116	10885	2.547111007633	-0.14844929413987
116	10892	2.547175007633	-0.14844993413987
116	10902	2.547465007633	-0.14845051413987
116	10911	2.555753007633	-0.14853339413987
116	10923	2.555764341889	-0.14853341680839
116	10930	2.555828341889	-0.14853373680839
116	10937	2.556138352273	-0.14853435682915
116	10950	2.564426352273	-0.14861723682915
116	10962	2.564437686529	-0.14861725949767
116	10969	2.564501686529	-0.14861757949767
116	10976	2.564611696913	-0.14861779951843
116	10985	2.572899696913	-0.14870067951843
116	10997	2.572911031169	-0.14870070218695
116	11004	2.572975031169	-0.14870102218695
116	11007	2.573085031169	-0.14870124218695
116	11015	2.581373031169	-0.14953004218695
116	11028	2.581384375809	-0.14953006487623
116	11039	2.581448375809	-0.14953070487623
116	11045	2.581538375809	-0.14953088487623
116	11057	2.589826375809	-0.15035968487623
116	11070	2.589837720449	-0.15035970756551
116	11077	2.589901720449	-0.15036034756551
116	11087	2.590071720449	-0.15036068756551
116	11100	2.598359720449	-0.15044356756551
116	11112	2.598371054705	-0.15044359023402
116	11119	2.598435054705	-0.15044391023402
116	11126	2.598485065089	-0.15044401025479
116	11135	2.606773065089	-0.15052689025479
116	11147	2.606784399345	-0.1505269129233
116	11154	2.606848399345	-0.1505272329233
116	11157	2.607078399345	-0.1505276929233
116	11177	2.615366399345	-0.1513564929233
116	11190	2.615377743985	-0.15135651561258
116	11197	2.615441743985	-0.15135715561258
116	11203	2.615731743985	-0.15135773561258
116	11211	2.624019743985	-0.15218653561258
116	11224	2.624031088625	-0.15218655830186
116	11231	2.624095088625	-0.15218719830186
116	11241	2.624245088625	-0.15218749830186
116	11254	2.632533088625	-0.15227037830186
116	11266	2.632544422881	-0.15227040097037
116	11273	2.632608422881	-0.15227072097037
116	11284	2.632778422881	-0.15227106097037
116	11311	2.641066422881	-0.15309986097037
116	11312	2.641066433265	-0.15309986102229
116	11327	2.642210433265	-0.15310214902229
116	11344	2.650498433265	-0.15318502902229
116	11356	2.650509767521	-0.1531850516908
116	11363	2.650573767521	-0.1531853716908
116	11366	2.650783767521	-0.1531857916908
116	11378	2.659071767521	-0.1540145916908
116	11391	2.659083112161	-0.15401461438008
116	11398	2.659147112161	-0.15401525438008
116	11404	2.659417112161	-0.15401579438008
116	11424	2.667705112161	-0.15484459438008
116	11437	2.667716456801	-0.15484461706936
116	11444	2.667780456801	-0.15484525706936
116	11454	2.668070456801	-0.15484583706936
116	11467	2.676358456801	-0.15492871706936
116	11479	2.676369791057	-0.15492873973787
116	11486	2.676433791057	-0.15492905973787
116	11489	2.676743791057	-0.15492967973787
116	11501	2.685031791057	-0.15575847973787
116	11514	2.685043135697	-0.15575850242715
116	11521	2.685107135697	-0.15575914242715
116	11527	2.685337135697	-0.15575960242715
116	11535	2.693625135697	-0.15658840242715
116	11548	2.693636480337	-0.15658842511643
116	11555	2.693700480337	-0.15658906511643
116	11561	2.693870480337	-0.15658940511643
116	11569	2.702158480337	-0.15741820511643
116	11582	2.702169824977	-0.15741822780571
116	11589	2.702233824977	-0.15741886780571
116	11599	2.702363824977	-0.15741912780571
116	11608	2.710651824977	-0.15750200780571
116	11620	2.710663159233	-0.15750203047423
116	11627	2.710727159233	-0.15750235047423
116	11634	2.710937169617	-0.15750277049499
116	11647	2.719225169617	-0.15758565049499
116	11659	2.719236503873	-0.15758567316351
116	11666	2.719300503873	-0.15758599316351
116	11673	2.719650514257	-0.15758669318427
116	11682	2.727938514257	-0.15766957318427
116	11694	2.727949848513	-0.15766959585279
116	11701	2.728013848513	-0.15766991585279
116	11708	2.728163848513	-0.15767021585279
116	11723	2.736451848513	-0.15849901585279
116	11724	2.736451858897	-0.15849901590471
116	11735	2.737575848513	-0.15850126388394
116	11743	2.745863848513	-0.15933006388394
116	11756	2.745875193153	-0.15933008657322
116	11763	2.745939193153	-0.15933072657322
116	11769	2.745989193153	-0.15933082657322
116	11777	2.754277193153	-0.16015962657322
116	11790	2.754288537793	-0.1601596492625
116	11797	2.754352537793	-0.1601602892625
116	11807	2.754722537793	-0.1601610292625
116	11828	2.763010537793	-0.1609898292625
116	11842	2.763354537793	-0.1609905172625
116	11851	2.771642537793	-0.1610733972625
116	11863	2.771653872049	-0.16107341993101
116	11870	2.771717872049	-0.16107373993101
116	11873	2.771767872049	-0.16107383993101
116	11885	2.780055872049	-0.16190263993101
116	11898	2.780067216689	-0.16190266262029
116	11905	2.780131216689	-0.16190330262029
116	11915	2.780321216689	-0.16190368262029
116	11932	2.788609216689	-0.16198656262029
116	11944	2.788620550945	-0.1619865852888
116	11951	2.788684550945	-0.1619869052888
116	11954	2.788814550945	-0.1619871652888
116	11966	2.797102550945	-0.1628159652888
116	11979	2.797113895585	-0.16281598797808
116	11986	2.797177895585	-0.16281662797808
116	11996	2.797467895585	-0.16281720797808
116	12009	2.805755895585	-0.16290008797808
116	12021	2.805767229841	-0.16290011064659
116	12028	2.805831229841	-0.16290043064659
116	12031	2.806001229841	-0.16290077064659
116	12043	2.814289229841	-0.16372957064659
116	12056	2.814300574481	-0.16372959333587
116	12063	2.814364574481	-0.16373023333587
116	12073	2.814734574481	-0.16373097333587
116	12082	2.823022574481	-0.16381385333587
116	12094	2.823033908737	-0.16381387600439
116	12101	2.823097908737	-0.16381419600439
116	12108	2.823147919121	-0.16381429602515
116	12117	2.831435919121	-0.16389717602515
116	12129	2.831447253377	-0.16389719869367
116	12136	2.831511253377	-0.16389751869367
116	12139	2.831761253377	-0.16389801869367
116	12147	2.840049253377	-0.16472681869367
116	12160	2.840060598017	-0.16472684138295
116	12167	2.840124598017	-0.16472748138295
116	12173	2.840234598017	-0.16472770138295
116	12181	2.848522598017	-0.16555650138295
116	12194	2.848533942657	-0.16555652407223
116	12201	2.848597942657	-0.16555716407223
116	12207	2.848707942657	-0.16555738407223
116	12215	2.856995942657	-0.16638618407223
116	12228	2.857007287297	-0.16638620676151
116	12235	2.857071287297	-0.16638684676151
116	12245	2.857441287297	-0.16638758676151
116	12266	2.865729287297	-0.16721638676151
116	12276	2.866613287297	-0.16721815476151
116	12284	2.874901287297	-0.16804695476151
116	12297	2.874912631937	-0.16804697745079
116	12304	2.874976631937	-0.16804761745079
116	12310	2.875506631937	-0.16804867745079
116	12318	2.883794631937	-0.16887747745079
116	12331	2.883805976577	-0.16887750014007
116	12338	2.883869976577	-0.16887814014007
116	12344	2.884399976577	-0.16887920014007
116	12352	2.892687976577	-0.16970800014007
116	12365	2.892699321217	-0.16970802282935
116	12372	2.892763321217	-0.16970866282935
116	12382	2.893133321217	-0.16970940282935
116	12391	2.901421321217	-0.16979228282935
116	12403	2.901432655473	-0.16979230549786
116	12410	2.901496655473	-0.16979262549786
116	12421	2.901966665857	-0.16979356551863
116	12438	2.910254665857	-0.16987644551863
116	12450	2.910266000113	-0.16987646818714
116	12457	2.910330000113	-0.16987678818714
116	12464	2.910400010497	-0.16987692820791
116	12473	2.918688010497	-0.16995980820791
116	12485	2.918699344753	-0.16995983087642
116	12492	2.918763344753	-0.16996015087642
116	12495	2.918893344753	-0.16996041087642
116	12503	2.927181344753	-0.17078921087642
116	12516	2.927192689393	-0.1707892335657
116	12523	2.927256689393	-0.1707898735657
116	12533	2.927446689393	-0.1707902535657
116	12546	2.935734689393	-0.1708731335657
116	12558	2.935746023649	-0.17087315623421
116	12565	2.935810023649	-0.17087347623421
116	12568	2.936000023649	-0.17087385623421
116	12576	2.944288023649	-0.17170265623421
116	12589	2.944299368289	-0.17170267892349
116	12596	2.944363368289	-0.17170331892349
116	12602	2.944853368289	-0.17170429892349
116	12614	2.953141368289	-0.17253309892349
116	12627	2.953152712929	-0.17253312161277
116	12634	2.953216712929	-0.17253376161277
116	12640	2.953586712929	-0.17253450161277
116	12652	2.961874712929	-0.17336330161277
116	12669	2.961886057569	-0.17336332430205
116	12676	2.961950057569	-0.17336396430205
116	12686	2.962220057569	-0.17336450430205
116	12699	2.970508057569	-0.17344738430205
116	12711	2.970519391825	-0.17344740697056
116	12718	2.970583391825	-0.17344772697056
116	12721	2.971153391825	-0.17344886697056
116	12729	2.979441391825	-0.17427766697056
116	12742	2.979452736465	-0.17427768965984
116	12749	2.979516736465	-0.17427832965984
116	12759	2.979606736465	-0.17427850965984
116	12768	2.987894736465	-0.17436138965984
116	12780	2.987906070721	-0.17436141232835
116	12787	2.987970070721	-0.17436173232835
116	12790	2.988080070721	-0.17436195232835
116	12802	2.996368070721	-0.17519075232835
116	12815	2.996379415361	-0.17519077501763
116	12822	2.996443415361	-0.17519141501763
116	12828	2.996813415361	-0.17519215501763
116	12840	3.005101415361	-0.17602095501763
116	12853	3.005112760001	-0.17602097770691
116	12860	3.005176760001	-0.17602161770691
116	12866	3.005486760001	-0.17602223770691
116	12874	3.013774760001	-0.17685103770691
116	12887	3.013786104641	-0.17685106039619
116	12894	3.013850104641	-0.17685170039619
116	12904	3.014000104641	-0.17685200039619
116	12913	3.022288104641	-0.17693488039619
116	12925	3.022299438897	-0.17693490306471
116	12932	3.022363438897	-0.17693522306471
116	12935	3.022573438897	-0.17693564306471
116	12943	3.030861438897	-0.17776444306471
116	12956	3.030872783537	-0.17776446575399
116	12963	3.030936783537	-0.17776510575399
116	12973	3.030986783537	-0.17776520575399
116	12982	3.039274783537	-0.17784808575399
116	12994	3.039286117793	-0.1778481084225
116	13001	3.039350117793	-0.1778484284225
116	13008	3.039500128177	-0.17784872844327
116	13017	3.047788128177	-0.17793160844327
116	13029	3.047799462433	-0.17793163111178
116	13036	3.047863462433	-0.17793195111178
116	13039	3.047933462433	-0.17793209111178
116	13047	3.056221462433	-0.17876089111178
116	13060	3.056232807073	-0.17876091380106
116	13067	3.056296807073	-0.17876155380106
116	13077	3.056926807073	-0.17876281380106
116	13094	3.065214807073	-0.17959161380106
116	13108	3.065458807073	-0.17959210180106
116	13117	3.073746807073	-0.17967498180106
116	13129	3.073758141329	-0.17967500446957
116	13136	3.073822141329	-0.17967532446957
116	13143	3.073992151713	-0.17967566449034
116	13156	3.082280151713	-0.17975854449034
116	13168	3.082291485969	-0.17975856715885
116	13175	3.082355485969	-0.17975888715885
116	13182	3.082485485969	-0.17975914715885
116	13194	3.090773485969	-0.18058794715885
116	13207	3.090784830609	-0.18058796984813
116	13214	3.090848830609	-0.18058860984813
116	13224	3.091098830609	-0.18058910984813
116	13237	3.099386830609	-0.18067198984813
116	13249	3.099398164865	-0.18067201251664
116	13256	3.099462164865	-0.18067233251664
116	13259	3.099612164865	-0.18067263251664
116	13271	3.107900164865	-0.18150143251664
116	13284	3.107911509505	-0.18150145520592
116	13291	3.107975509505	-0.18150209520592
116	13297	3.108185509505	-0.18150251520592
116	13305	3.116473509505	-0.18233131520592
116	13318	3.116484854145	-0.1823313378952
116	13325	3.116548854145	-0.1823319778952
116	13331	3.116938854145	-0.1823327578952
116	13339	3.125226854145	-0.1831615578952
116	13352	3.125238198785	-0.18316158058448
116	13359	3.125302198785	-0.18316222058448
116	13365	3.125512198785	-0.18316264058448
116	13373	3.133800198785	-0.18399144058448
116	13386	3.133811543425	-0.18399146327376
116	13393	3.133875543425	-0.18399210327376
116	13399	3.134125543425	-0.18399260327376
116	13407	3.142413543425	-0.18482140327376
116	13420	3.142424888065	-0.18482142596304
116	13427	3.142488888065	-0.18482206596304
116	13433	3.143118888065	-0.18482332596304
116	13449	3.151406888065	-0.18565212596304
116	13462	3.151418232705	-0.18565214865232
116	13469	3.151482232705	-0.18565278865232
116	13475	3.152012232705	-0.18565384865232
116	13483	3.160300232705	-0.18648264865232
116	13496	3.160311577345	-0.1864826713416
116	13503	3.160375577345	-0.1864833113416
116	13509	3.160485577345	-0.1864835313416
116	13517	3.168773577345	-0.1873123313416
116	13530	3.168784921985	-0.18731235403088
116	13537	3.168848921985	-0.18731299403088
116	13547	3.169038921985	-0.18731337403088
116	13556	3.177326921985	-0.18739625403088
116	13568	3.177338256241	-0.18739627669939
116	13575	3.177402256241	-0.18739659669939
116	13578	3.177472256241	-0.18739673669939
116	13586	3.185760256241	-0.18822553669939
116	13599	3.185771600881	-0.18822555938867
116	13606	3.185835600881	-0.18822619938867
116	13612	3.186045600881	-0.18822661938867
116	13620	3.194333600881	-0.18905541938867
116	13633	3.194344945521	-0.18905544207795
116	13640	3.194408945521	-0.18905608207795
116	13650	3.194458945521	-0.18905618207795
116	13659	3.202746945521	-0.18913906207795
116	13671	3.202758279777	-0.18913908474647
116	13678	3.202822279777	-0.18913940474647
116	13685	3.202972290161	-0.18913970476723
116	13694	3.211260290161	-0.18922258476723
116	13706	3.211271624417	-0.18922260743575
116	13713	3.211335624417	-0.18922292743575
116	13716	3.211905624417	-0.18922406743575
116	13724	3.220193624417	-0.19005286743575
116	13737	3.220204969057	-0.19005289012503
116	13744	3.220268969057	-0.19005353012503
116	13754	3.220818969057	-0.19005463012503
116	13771	3.229106969057	-0.19088343012503
116	13785	3.229370969057	-0.19088395812503
116	13798	3.237658969057	-0.19096683812503
116	13810	3.237670303313	-0.19096686079354
116	13817	3.237734303313	-0.19096718079354
116	13824	3.237884313697	-0.19096748081431
116	13841	3.246172313697	-0.19105036081431
116	13853	3.246183647953	-0.19105038348282
116	13860	3.246247647953	-0.19105070348282
116	13863	3.246397647953	-0.19105100348282
116	13875	3.254685647953	-0.19187980348282
116	13888	3.254696992593	-0.1918798261721
116	13895	3.254760992593	-0.1918804661721
116	13905	3.255110992593	-0.1918811661721
116	13914	3.263398992593	-0.1919640461721
116	13926	3.263410326849	-0.19196406884061
116	13933	3.263474326849	-0.19196438884061
116	13936	3.263744326849	-0.19196492884061
116	13944	3.272032326849	-0.19279372884061
116	13957	3.272043671489	-0.19279375152989
116	13964	3.272107671489	-0.19279439152989
116	13970	3.272177671489	-0.19279453152989
116	13978	3.280465671489	-0.19362333152989
116	13991	3.280477016129	-0.19362335421917
116	13998	3.280541016129	-0.19362399421917
116	14008	3.280731016129	-0.19362437421917
116	14017	3.289019016129	-0.19370725421917
116	14029	3.289030350385	-0.19370727688768
116	14036	3.289094350385	-0.19370759688768
116	14039	3.289464350385	-0.19370833688768
116	14051	3.297752350385	-0.19453713688768
116	14064	3.297763695025	-0.19453715957696
116	14071	3.297827695025	-0.19453779957696
116	14077	3.297877695025	-0.19453789957696
116	14085	3.306165695025	-0.19536669957696
116	14098	3.306177039665	-0.19536672226624
116	14105	3.306241039665	-0.19536736226624
116	14115	3.306371039665	-0.19536762226624
116	14124	3.314659039665	-0.19545050226624
116	14136	3.314670373921	-0.19545052493475
116	14143	3.314734373921	-0.19545084493475
116	14146	3.315204373921	-0.19545178493475
116	14154	3.323492373921	-0.19628058493475
116	14167	3.323503718561	-0.19628060762403
116	14174	3.323567718561	-0.19628124762403
116	14180	3.323657718561	-0.19628142762403
116	14192	3.331945718561	-0.19711022762403
116	14205	3.331957063201	-0.19711025031331
116	14212	3.332021063201	-0.19711089031331
116	14222	3.332171063201	-0.19711119031331
116	14235	3.340459063201	-0.19719407031331
116	14247	3.340470397457	-0.19719409298183
116	14254	3.340534397457	-0.19719441298183
116	14261	3.340604407841	-0.19719455300259
116	14270	3.348892407841	-0.19727743300259
116	14282	3.348903742097	-0.19727745567111
116	14289	3.348967742097	-0.19727777567111
116	14292	3.349097742097	-0.19727803567111
116	14300	3.357385742097	-0.19810683567111
116	14313	3.357397086737	-0.19810685836039
116	14320	3.357461086737	-0.19810749836039
116	14330	3.357611086737	-0.19810779836039
116	14351	3.365899086737	-0.19893659836039
116	14369	3.366523086737	-0.19893784636039
116	14378	3.374811086737	-0.19902072636039
116	14390	3.374822420993	-0.1990207490289
116	14397	3.374886420993	-0.1990210690289
116	14400	3.375116420993	-0.1990215290289
116	14408	3.383404420993	-0.1998503290289
116	14421	3.383415765633	-0.19985035171818
116	14428	3.383479765633	-0.19985099171818
116	14434	3.383609765633	-0.19985125171818
116	14450	3.391897765633	-0.20068005171818
116	14463	3.391909110273	-0.20068007440746
116	14470	3.391973110273	-0.20068071440746
116	14476	3.392083110273	-0.20068093440746
116	14488	3.400371110273	-0.20150973440746
116	14501	3.400382454913	-0.20150975709674
116	14508	3.400446454913	-0.20151039709674
116	14514	3.400576454913	-0.20151065709674
116	14530	3.408864454913	-0.20233945709674
116	14543	3.408875799553	-0.20233947978602
116	14550	3.408939799553	-0.20234011978602
116	14560	3.409029799553	-0.20234029978602
116	14577	3.417317799553	-0.20242317978602
116	14589	3.417329133809	-0.20242320245453
116	14596	3.417393133809	-0.20242352245453
116	14599	3.417543133809	-0.20242382245453
116	14607	3.425831133809	-0.20325262245453
116	14620	3.425842478449	-0.20325264514381
116	14627	3.425906478449	-0.20325328514381
116	14633	3.426356478449	-0.20325418514381
116	14645	3.434644478449	-0.20408298514381
116	14658	3.434655823089	-0.20408300783309
116	14665	3.434719823089	-0.20408364783309
116	14675	3.434849823089	-0.20408390783309
116	14696	3.443137823089	-0.20491270783309
116	14710	3.443501823089	-0.20491343583309
116	14727	3.451789823089	-0.20499631583309
116	14739	3.451801157345	-0.2049963385016
116	14746	3.451865157345	-0.2049966585016
116	14749	3.451935157345	-0.2049967985016
116	14757	3.460223157345	-0.2058255985016
116	14770	3.460234501985	-0.20582562119088
116	14777	3.460298501985	-0.20582626119088
116	14783	3.460368501985	-0.20582640119088
116	14791	3.468656501985	-0.20665520119088
116	14804	3.468667846625	-0.20665522388016
116	14811	3.468731846625	-0.20665586388016
116	14817	3.469041846625	-0.20665648388016
116	14833	3.477329846625	-0.20748528388016
116	14846	3.477341191265	-0.20748530656944
116	14853	3.477405191265	-0.20748594656944
116	14863	3.477575191265	-0.20748628656944
116	14884	3.485863191265	-0.20756916656944
116	14896	3.485874525521	-0.20756918923795
116	14903	3.485938525521	-0.20756950923795
116	14910	3.486508535905	-0.20757064925872
116	14919	3.494796535905	-0.20765352925872
116	14931	3.494807870161	-0.20765355192723
116	14938	3.494871870161	-0.20765387192723
116	14945	3.494961880545	-0.207654051948
116	14958	3.503249880545	-0.207736931948
116	14970	3.503261214801	-0.20773695461651
116	14977	3.503325214801	-0.20773727461651
116	14980	3.503655214801	-0.20773793461651
116	14988	3.511943214801	-0.20856673461651
116	15001	3.511954559441	-0.20856675730579
116	15008	3.512018559441	-0.20856739730579
116	15018	3.512128559441	-0.20856761730579
116	15035	3.520416559441	-0.20865049730579
116	15047	3.520427893697	-0.20865051997431
116	15054	3.520491893697	-0.20865083997431
116	15061	3.520661904081	-0.20865117999507
116	15070	3.528949904081	-0.20873405999507
116	15082	3.528961238337	-0.20873408266359
116	15089	3.529025238337	-0.20873440266359
116	15096	3.529455248721	-0.20873526268435
116	15105	3.537743248721	-0.20881814268435
116	15117	3.537754582977	-0.20881816535287
116	15124	3.537818582977	-0.20881848535287
116	15127	3.538208582977	-0.20881926535287
116	15139	3.546496582977	-0.20964806535287
116	15152	3.546507927617	-0.20964808804215
116	15159	3.546571927617	-0.20964872804215
116	15169	3.546881927617	-0.20964934804215
116	15190	3.555169927617	-0.20973222804215
116	15202	3.555181261873	-0.20973225071066
116	15209	3.555245261873	-0.20973257071066
116	15212	3.555675261873	-0.20973343071066
116	15224	3.563963261873	-0.21056223071066
116	15237	3.563974606513	-0.21056225339994
116	15244	3.564038606513	-0.21056289339994
116	15250	3.564208606513	-0.21056323339994
116	15278	3.572496606513	-0.21139203339994
116	15291	3.572507951153	-0.21139205608922
116	15298	3.572571951153	-0.21139269608922
116	15304	3.572801951153	-0.21139315608922
116	15320	3.581089951153	-0.21222195608922
116	15333	3.581101295793	-0.2122219787785
116	15340	3.581165295793	-0.2122226187785
116	15350	3.581355295793	-0.2122229987785
116	15359	3.589643295793	-0.2123058787785
116	15371	3.589654630049	-0.21230590144701
116	15378	3.589718630049	-0.21230622144701
116	15381	3.589788630049	-0.21230636144701
116	15389	3.598076630049	-0.21313516144701
116	15402	3.598087974689	-0.21313518413629
116	15409	3.598151974689	-0.21313582413629
116	15419	3.598561974689	-0.21313664413629
116	15436	3.606849974689	-0.21321952413629
116	15448	3.606861308945	-0.2132195468048
116	15455	3.606925308945	-0.2132198668048
116	15458	3.607135308945	-0.2132202868048
[...]
178	36194	8.439935648308	1
178	36199	8.439945837886	3
178	36204	8.440009837886	1
178	36216	8.440119837886	3
178	36227	8.448407837886	1
178	36239	8.448418442828	3
178	36244	8.448482442828	1
178	36256	8.448854327204	2
178	36271	8.457142327204	1
178	36276	8.457152516782	3
178	36281	8.457216516782	1
178	36293	8.457566516782	3
178	36308	8.465854516782	1
178	36320	8.465865121724	3
178	36325	8.465929121724	1
178	36337	8.4663610061	2
178	36348	8.4746490061	1
178	36353	8.474659195678	3
178	36358	8.474723195678	1
178	36370	8.474813195678	3
178	36381	8.483101195678	1
178	36393	8.48311180062	3
178	36398	8.48317580062	1
178	36410	8.483367684996	2
178	36425	8.491655684996	1
178	36430	8.491665874574	3
178	36435	8.491729874574	1
178	36447	8.491799874574	3
178	36462	8.500087874574	1
178	36474	8.500098479516	3
178	36479	8.500162479516	1
178	36491	8.500354363892	2
178	36510	8.508642363892	1
178	36515	8.50865255347	3
178	36524	8.50871655347	1
178	36536	8.50884655347	3
178	36543	8.51713455347	1
178	36555	8.517145158412	3
178	36560	8.517209158412	1
178	36571	8.51765989811	3
178	36578	8.52594789811	1
178	36590	8.525958503052	3
178	36595	8.526022503052	1
178	36607	8.526314387428	2
178	36622	8.534602387428	1
178	36627	8.534612577006	3
178	36632	8.534676577006	1
178	36644	8.534746577006	3
178	36651	8.543034577006	1
178	36663	8.543045181948	3
178	36668	8.543109181948	1
178	36680	8.543281066324	2
178	36691	8.551569066324	1
178	36696	8.551579255902	3
178	36701	8.551643255902	1
178	36714	8.551734410964	2
178	36725	8.560022410964	1
178	36730	8.560032600542	3
178	36735	8.560096600542	1
178	36748	8.560427755604	2
178	36763	8.568715755604	1
178	36768	8.568725945182	3
178	36773	8.568789945182	1
178	36786	8.569381100244	2
178	36801	8.577669100244	1
178	36806	8.577679289822	3
178	36811	8.577743289822	1
178	36823	8.577893289822	3
178	36830	8.586181289822	1
178	36842	8.586191894764	3
178	36847	8.586255894764	1
178	36859	8.58652777914	2
178	36878	8.59481577914	1
178	36883	8.594825968718	3
178	36888	8.594889968718	1
178	36901	8.59518112378	2
178	36916	8.60346912378	1
178	36921	8.603479313358	3
178	36926	8.603543313358	1
178	36938	8.603893313358	3
178	36945	8.612181313358	1
178	36957	8.6121919183	3
178	36962	8.6122559183	1
178	36973	8.612486657998	3
178	36984	8.620774657998	1
178	36996	8.62078526294	3
178	37001	8.62084926294	1
178	37012	8.621220002638	3
178	37019	8.629508002638	1
178	37031	8.62951860758	3
178	37036	8.62958260758	1
178	37047	8.630233347278	3
178	37060	8.638521347278	2
178	37069	8.638522491956	1
178	37078	8.639405347278	3
178	37085	8.647693347278	1
178	37097	8.64770395222	3
178	37102	8.64776795222	1
178	37113	8.648138691918	3
178	37120	8.656426691918	1
178	37132	8.65643729686	3
178	37137	8.65650129686	1
178	37148	8.656672036558	3
178	37155	8.664960036558	1
178	37167	8.6649706415	3
178	37172	8.6650346415	1
178	37183	8.665205381198	3
178	37194	8.673493381198	1
178	37206	8.67350398614	3
178	37211	8.67356798614	1
178	37223	8.673639870516	2
178	37238	8.681927870516	1
178	37243	8.681938060094	3
178	37248	8.682002060094	1
178	37261	8.682053215156	2
178	37272	8.690341215156	1
178	37277	8.690351404734	3
178	37282	8.690415404734	1
178	37295	8.690546559796	2
178	37310	8.698834559796	1
178	37315	8.698844749374	3
178	37320	8.698908749374	1
178	37333	8.699099904436	2
178	37344	8.707387904436	1
178	37349	8.707398094014	3
178	37354	8.707462094014	1
178	37366	8.707552094014	3
178	37377	8.715840094014	1
178	37389	8.715850698956	3
178	37394	8.715914698956	1
178	37406	8.716506583332	2
178	37421	8.724794583332	1
178	37426	8.72480477291	3
178	37431	8.72486877291	1
178	37443	8.72507877291	3
178	37454	8.73336677291	1
178	37466	8.733377377852	3
178	37471	8.733441377852	1
178	37483	8.733813262228	2
178	37494	8.742101262228	1
178	37499	8.742111451806	3
178	37504	8.742175451806	1
178	37516	8.742365451806	3
178	37523	8.750653451806	1
178	37535	8.750664056748	3
178	37540	8.750728056748	1
178	37552	8.750979941124	2
178	37563	8.759267941124	1
178	37568	8.759278130702	3
178	37573	8.759342130702	1
178	37585	8.759652130702	3
178	37604	8.767940130702	1
178	37616	8.767950735644	3
178	37621	8.768014735644	1
178	37632	8.768105475342	3
178	37647	8.776393475342	1
178	37659	8.776404080284	3
178	37664	8.776468080284	1
178	37676	8.77693996466	2
178	37687	8.78522796466	1
178	37692	8.785238154238	3
178	37697	8.785302154238	1
178	37709	8.785412154238	3
178	37720	8.793700154238	1
178	37732	8.79371075918	3
178	37737	8.79377475918	1
178	37749	8.794106643556	2
178	37764	8.802394643556	1
178	37769	8.802404833134	3
178	37774	8.802468833134	1
178	37786	8.802738833134	3
178	37797	8.811026833134	1
178	37809	8.811037438076	3
178	37814	8.811101438076	1
178	37826	8.811493322452	2
178	37845	8.819781322452	1
178	37850	8.81979151203	3
178	37855	8.81985551203	1
178	37868	8.819966667092	2
178	37883	8.828254667092	1
178	37888	8.82826485667	3
178	37893	8.82832885667	1
178	37906	8.828760011732	2
178	37933	8.837048011732	1
178	37938	8.83705820131	3
178	37943	8.83712220131	1
178	37956	8.837413356372	2
178	37971	8.845701356372	1
178	37976	8.84571154595	3
178	37981	8.84577554595	1
178	37993	8.84604554595	3
178	38000	8.85433354595	1
178	38012	8.854344150892	3
178	38017	8.854408150892	1
178	38029	8.854740035268	2
178	38040	8.863028035268	1
178	38045	8.863038224846	3
178	38050	8.863102224846	1
178	38063	8.863273379908	2
178	38082	8.871561379908	1
178	38087	8.871571569486	3
178	38092	8.871635569486	1
178	38104	8.872265569486	3
178	38111	8.880553569486	1
178	38123	8.880564174428	3
178	38128	8.880628174428	1
178	38139	8.880758914126	3
178	38158	8.889046914126	1
178	38170	8.889057519068	3
178	38175	8.889121519068	1
178	38186	8.889552258766	3
178	38197	8.897840258766	1
178	38209	8.897850863708	3
178	38214	8.897914863708	1
178	38226	8.898226748084	2
178	38241	8.906514748084	1
178	38246	8.906524937662	3
178	38251	8.906588937662	1
178	38263	8.906918937662	3
178	38270	8.915206937662	1
178	38282	8.915217542604	3
178	38287	8.915281542604	1
178	38299	8.91559342698	2
178	38318	8.92388142698	1
178	38323	8.923891616558	3
178	38328	8.923955616558	1
178	38340	8.924405616558	3
178	38347	8.932693616558	1
178	38359	8.9327042215	3
178	38364	8.9327682215	1
178	38376	8.932900105876	2
178	38387	8.941188105876	1
178	38392	8.941198295454	3
178	38397	8.941262295454	1
178	38409	8.941472295454	3
178	38420	8.949760295454	1
178	38432	8.949770900396	3
178	38437	8.949834900396	1
178	38449	8.950146784772	2
178	38468	8.958434784772	1
178	38473	8.95844497435	3
178	38478	8.95850897435	1
178	38491	8.958740129412	2
178	38506	8.967028129412	1
178	38511	8.96703831899	3
178	38516	8.96710231899	1
178	38529	8.967253474052	2
178	38540	8.975541474052	1
178	38545	8.97555166363	3
178	38550	8.97561566363	1
178	38563	8.975926818692	2
178	38574	8.984214818692	1
178	38579	8.98422500827	3
178	38584	8.98428900827	1
178	38596	8.98455900827	3
178	38603	8.99284700827	1
178	38615	8.992857613212	3
178	38620	8.992921613212	1
178	38631	8.99315235291	3
178	38638	9.00144035291	1
178	38650	9.001450957852	3
178	38655	9.001514957852	1
178	38666	9.00204569755	3
178	38677	9.01033369755	1
178	38689	9.010344302492	3
178	38694	9.010408302492	1
178	38706	9.010460186868	2
178	38721	9.018748186868	1
178	38726	9.018758376446	3
178	38731	9.018822376446	1
178	38743	9.019192376446	3
178	38750	9.027480376446	1
178	38762	9.027490981388	3
178	38767	9.027554981388	1
178	38779	9.027846865764	2
178	38794	9.036134865764	1
178	38799	9.036145055342	3
178	38804	9.036209055342	1
178	38816	9.036479055342	3
178	38831	9.044767055342	1
178	38843	9.044777660284	3
178	38848	9.044841660284	1
178	38860	9.04541354466	2
178	38871	9.05370154466	1
178	38876	9.053711734238	3
178	38881	9.053775734238	1
178	38894	9.0540668893	2
178	38905	9.0623548893	1
178	38910	9.062365078878	3
178	38915	9.062429078878	1
178	38927	9.062639078878	3
178	38942	9.070927078878	1
178	38954	9.07093768382	3
178	38959	9.07100168382	1
178	38970	9.071112423518	3
178	38977	9.079400423518	1
178	38989	9.07941102846	3
178	38994	9.07947502846	1
178	39006	9.079706912836	2
178	39025	9.087994912836	1
178	39030	9.088005102414	3
178	39035	9.088069102414	1
178	39047	9.088339102414	3
178	39054	9.096627102414	1
178	39066	9.096637707356	3
178	39071	9.096701707356	1
178	39083	9.097073591732	2
178	39094	9.105361591732	1
178	39099	9.10537178131	3
178	39104	9.10543578131	1
178	39115	9.10548578131	3
178	39131	9.11377378131	1
178	39143	9.113784386252	3
178	39148	9.113848386252	1
178	39159	9.11411912595	3
178	39166	9.12240712595	1
178	39178	9.122417730892	3
178	39183	9.122481730892	1
178	39195	9.122773615268	2
178	39210	9.131061615268	1
178	39215	9.131071804846	3
178	39220	9.131135804846	1
178	39232	9.131345804846	3
178	39239	9.139633804846	1
178	39251	9.139644409788	3
178	39256	9.139708409788	1
178	39268	9.139960294164	2
178	39287	9.148248294164	1
178	39292	9.148258483742	3
178	39297	9.148322483742	1
178	39309	9.148492483742	3
178	39320	9.156780483742	1
178	39332	9.156791088684	3
178	39337	9.156855088684	1
178	39349	9.15712697306	2
178	39360	9.16541497306	1
178	39365	9.165425162638	3
178	39370	9.165489162638	1
178	39382	9.165559162638	3
178	39389	9.173847162638	1
178	39401	9.17385776758	3
178	39406	9.17392176758	1
178	39417	9.174072507278	3
178	39424	9.182360507278	1
178	39436	9.18237111222	3
178	39441	9.18243511222	1
178	39453	9.182786996596	2
178	39464	9.191074996596	1
178	39469	9.191085186174	3
178	39474	9.191149186174	1
178	39487	9.191380341236	2
178	39502	9.199668341236	1
178	39507	9.199678530814	3
178	39512	9.199742530814	1
178	39525	9.200193685876	2
178	39540	9.208481685876	1
178	39545	9.208491875454	3
178	39550	9.208555875454	1
178	39563	9.208627030516	2
178	39574	9.216915030516	1
178	39579	9.216925220094	3
178	39584	9.216989220094	1
178	39596	9.217159220094	3
178	39607	9.225447220094	1
178	39619	9.225457825036	3
178	39624	9.225521825036	1
178	39636	9.225833709412	2
178	39647	9.234121709412	1
178	39652	9.23413189899	3
178	39657	9.23419589899	1
178	39670	9.234527054052	2
178	39681	9.242815054052	1
178	39686	9.24282524363	3
178	39691	9.24288924363	1
178	39703	9.24299924363	3
178	39710	9.25128724363	1
178	39722	9.251297848572	3
178	39727	9.251361848572	1
178	39738	9.25151258827	3
178	39745	9.25980058827	1
178	39757	9.259811193212	3
178	39762	9.259875193212	1
178	39774	9.260127077588	2
178	39789	9.268415077588	1
178	39794	9.268425267166	3
178	39799	9.268489267166	1
178	39812	9.268660422228	2
178	39823	9.276948422228	1
178	39828	9.276958611806	3
178	39833	9.277022611806	1
178	39845	9.277272611806	3
178	39852	9.285560611806	1
178	39864	9.285571216748	3
178	39869	9.285635216748	1
178	39880	9.285705956446	3
178	39887	9.293993956446	1
178	39899	9.294004561388	3
178	39904	9.294068561388	1
178	39916	9.294440445764	2
178	39927	9.302728445764	1
178	39932	9.302738635342	3
178	39937	9.302802635342	1
178	39949	9.303152635342	3
178	39956	9.311440635342	1
178	39968	9.311451240284	3
178	39973	9.311515240284	1
178	39984	9.311945979982	3
178	39995	9.320233979982	1
178	40007	9.320244584924	3
178	40012	9.320308584924	1
178	40024	9.3207404693	2
178	40035	9.3290284693	1
178	40040	9.329038658878	3
178	40045	9.329102658878	1
178	40058	9.32921381394	2
178	40069	9.33750181394	1
178	40074	9.337512003518	3
178	40079	9.337576003518	1
178	40091	9.337806003518	3
178	40112	9.346094003518	2
178	40121	9.34609515858	1
178	40130	9.346438003518	3
178	40141	9.354726003518	1
178	40153	9.35473660846	3
178	40158	9.35480060846	1
178	40169	9.354951348158	3
178	40176	9.363239348158	1
178	40188	9.3632499531	3
178	40193	9.3633139531	1
178	40205	9.363665837476	2
178	40216	9.371953837476	1
178	40221	9.371964027054	3
178	40226	9.372028027054	1
178	40238	9.372358027054	3
178	40249	9.380646027054	1
178	40261	9.380656631996	3
178	40266	9.380720631996	1
178	40277	9.380791371694	3
178	40292	9.389079371694	1
178	40304	9.389089976636	3
178	40309	9.389153976636	1
178	40320	9.389284716334	3
178	40327	9.397572716334	1
178	40339	9.397583321276	3
178	40344	9.397647321276	1
178	40355	9.397858060974	3
178	40370	9.406146060974	1
178	40382	9.406156665916	3
178	40387	9.406220665916	1
178	40398	9.406311405614	3
178	40405	9.414599405614	1
178	40417	9.414610010556	3
178	40422	9.414674010556	1
178	40433	9.414984750254	3
178	40444	9.423272750254	1
178	40456	9.423283355196	3
178	40461	9.423347355196	1
178	40473	9.423559239572	2
178	40488	9.431847239572	1
178	40493	9.43185742915	3
178	40498	9.43192142915	1
178	40510	9.43209142915	3
178	40521	9.44037942915	1
178	40533	9.440390034092	3
178	40542	9.440454034092	1
178	40554	9.440545918468	2
178	40569	9.448833918468	1
178	40574	9.448844108046	3
178	40579	9.448908108046	1
178	40591	9.449098108046	3
178	40598	9.457386108046	1
178	40610	9.457396712988	3
178	40615	9.457460712988	1
178	40626	9.457751452686	3
178	40633	9.466039452686	1
178	40645	9.466050057628	3
178	40650	9.466114057628	1
178	40661	9.466564797326	3
178	40668	9.474852797326	1
178	40680	9.474863402268	3
178	40685	9.474927402268	1
178	40696	9.475198141966	3
178	40711	9.483486141966	1
178	40723	9.483496746908	3
178	40728	9.483560746908	1
178	40739	9.483751486606	3
178	40746	9.492039486606	1
178	40758	9.492050091548	3
178	40763	9.492114091548	1
178	40774	9.492244831246	3
178	40781	9.500532831246	1
178	40793	9.500543436188	3
178	40798	9.500607436188	1
178	40810	9.500859320564	2
178	40825	9.509147320564	1
178	40830	9.509157510142	3
178	40835	9.509221510142	1
178	40846	9.509271510142	3
178	40858	9.517559510142	1
178	40870	9.517570115084	3
178	40875	9.517634115084	1
178	40887	9.51794599946	2
178	40902	9.52623399946	1
178	40907	9.526244189038	3
178	40912	9.526308189038	1
178	40924	9.526538189038	3
178	40931	9.534826189038	1
178	40943	9.53483679398	3
178	40948	9.53490079398	1
178	40959	9.535111533678	3
178	40966	9.543399533678	1
178	40978	9.54341013862	3
178	40983	9.54347413862	1
178	40994	9.543544878318	3
178	41001	9.551832878318	1
178	41013	9.55184348326	3
178	41018	9.55190748326	1
178	41030	9.552259367636	2
178	41049	9.560547367636	1
178	41054	9.560557557214	3
178	41059	9.560621557214	1
178	41071	9.561271557214	3
178	41096	9.569559557214	2
178	41105	9.569560712276	1
178	41114	9.569943557214	3
178	41125	9.578231557214	1
178	41137	9.578242162156	3
178	41142	9.578306162156	1
178	41153	9.578796901854	3
178	41160	9.587084901854	1
178	41172	9.587095506796	3
178	41177	9.587159506796	1
178	41189	9.587471391172	2
178	41200	9.595759391172	1
178	41205	9.59576958075	3
178	41210	9.59583358075	1
178	41222	9.59590358075	3
178	41233	9.60419158075	1
178	41245	9.604202185692	3
178	41250	9.604266185692	1
178	41262	9.604558070068	2
178	41273	9.612846070068	1
178	41278	9.612856259646	3
178	41283	9.612920259646	1
178	41295	9.613150259646	3
178	41302	9.621438259646	1
178	41314	9.621448864588	3
178	41319	9.621512864588	1
178	41329	9.621563604286	3
178	41337	9.629851604286	1
178	41349	9.629862209228	3
178	41354	9.629926209228	1
178	41366	9.630158093604	2
178	41381	9.638446093604	1
178	41386	9.638456283182	3
178	41391	9.638520283182	1
178	41404	9.638591438244	2
178	41419	9.646879438244	1
178	41424	9.646889627822	3
178	41429	9.646953627822	1
178	41442	9.647324782884	2
178	41453	9.655612782884	1
178	41458	9.655622972462	3
178	41463	9.655686972462	1
178	41475	9.655876972462	3
178	41490	9.664164972462	1
178	41502	9.664175577404	3
178	41507	9.664239577404	1
178	41518	9.664650317102	3
178	41529	9.672938317102	1
178	41541	9.672948922044	3
178	41546	9.673012922044	1
178	41558	9.67310480642	2
178	41569	9.68139280642	1
178	41574	9.681402995998	3
178	41579	9.681466995998	1
178	41592	9.68171815106	2
178	41607	9.69000615106	1
178	41612	9.690016340638	3
178	41617	9.690080340638	1
178	41629	9.690290340638	3
178	41642	9.698578340638	2
178	41651	9.6985794957	1
178	41660	9.699262340638	3
178	41667	9.707550340638	1
178	41679	9.70756094558	3
178	41684	9.70762494558	1
178	41696	9.707756829956	2
178	41711	9.716044829956	1
178	41716	9.716055019534	3
178	41721	9.716119019534	1
178	41733	9.716669019534	3
178	41744	9.724957019534	1
178	41756	9.724967624476	3
178	41761	9.725031624476	1
178	41772	9.725602364174	3
178	41779	9.733890364174	1
178	41791	9.733900969116	3
178	41796	9.733964969116	1
178	41808	9.734236853492	2
178	41819	9.742524853492	1
178	41824	9.74253504307	3
178	41829	9.74259904307	1
178	41842	9.742710198132	2
178	41861	9.750998198132	1
178	41866	9.75100838771	3
178	41871	9.75107238771	1
178	41883	9.75136238771	3
178	41894	9.75965038771	1
178	41906	9.759660992652	3
178	41911	9.759724992652	1
178	41923	9.760136877028	2
178	41942	9.768424877028	1
178	41947	9.768435066606	3
178	41952	9.768499066606	1
178	41964	9.768789066606	3
178	41977	9.777077066606	2
178	41986	9.777078221668	1
178	42000	9.777562221668	2
178	42019	9.785850221668	1
178	42024	9.785860411246	3
178	42029	9.785924411246	1
178	42042	9.785975566308	2
178	42061	9.794263566308	1
178	42066	9.794273755886	3
178	42071	9.794337755886	1
178	42084	9.794748910948	2
178	42095	9.803036910948	1
178	42100	9.803047100526	3
178	42105	9.803111100526	1
178	42118	9.803422255588	2
178	42129	9.811710255588	1
178	42134	9.811720445166	3
178	42139	9.811784445166	1
178	42152	9.811955600228	2
178	42163	9.820243600228	1
178	42168	9.820253789806	3
178	42173	9.820317789806	1
178	42186	9.820468944868	2
178	42205	9.828756944868	1
178	42210	9.828767134446	3
178	42215	9.828831134446	1
178	42227	9.829121134446	3
178	42242	9.837409134446	1
178	42254	9.837419739388	3
178	42259	9.837483739388	1
178	42271	9.837895623764	2
178	42282	9.846183623764	1
178	42287	9.846193813342	3
178	42292	9.846257813342	1
178	42305	9.846468968404	2
178	42316	9.854756968404	1
178	42321	9.854767157982	3
178	42326	9.854831157982	1
178	42339	9.855322313044	2
178	42354	9.863610313044	1
178	42359	9.863620502622	3
178	42364	9.863684502622	1
178	42377	9.864095657684	2
178	42396	9.872383657684	1
178	42401	9.872393847262	3
178	42406	9.872457847262	1
178	42419	9.872589002324	2
178	42434	9.880877002324	1
178	42439	9.880887191902	3
178	42444	9.880951191902	1
178	42456	9.881061191902	3
178	42467	9.889349191902	1
178	42479	9.889359796844	3
178	42484	9.889423796844	1
178	42495	9.889774536542	3
178	42514	9.898062536542	1
178	42526	9.898073141484	3
178	42531	9.898137141484	1
178	42542	9.898327881182	3
178	42553	9.906615881182	1
178	42565	9.906626486124	3
178	42570	9.906690486124	1
178	42581	9.907121225822	3
178	42588	9.915409225822	1
178	42600	9.915419830764	3
178	42605	9.915483830764	1
178	42616	9.915594570462	3
178	42627	9.923882570462	1
178	42639	9.923893175404	3
178	42644	9.923957175404	1
178	42656	9.92404905978	2
178	42671	9.93233705978	1
178	42676	9.932347249358	3
178	42681	9.932411249358	1
178	42694	9.93286240442	2
178	42705	9.94115040442	1
178	42710	9.941160593998	3
178	42715	9.941224593998	1
178	42727	9.941334593998	3
178	42734	9.949622593998	1
178	42746	9.94963319894	3
178	42751	9.94969719894	1
178	42763	9.949749083316	2
178	42786	9.958037083316	1
178	42791	9.958047272894	3
178	42796	9.958111272894	1
178	42809	9.958362427956	2
178	42820	9.966650427956	1
178	42825	9.966660617534	3
178	42830	9.966724617534	1
178	42842	9.966834617534	3
178	42849	9.975122617534	1
178	42861	9.975133222476	3
178	42866	9.975197222476	1
178	42878	9.975269106852	2
178	42889	9.983557106852	1
178	42894	9.98356729643	3
178	42899	9.98363129643	1
178	42912	9.984082451492	2
178	42923	9.992370451492	1
178	42928	9.99238064107	3
178	42933	9.99244464107	1
178	42946	9.992555796132	2
