version 2
run BaseConfig-0-20170221-18:00:34-11096
attr NM 2
attr NS (2)
attr SPM ((2)/2)
attr configname BaseConfig
attr datetime 20170221-18:00:34
attr experiment BaseConfig
attr inifile omnetpp.ini
attr iterationvars "$NM=2, $NS=(2), $SPM=((2)/2)"
attr iterationvars2 "$NM=2, $NS=(2), $SPM=((2)/2), $repetition=0"
attr measurement "$NM=2, $NS=(2), $SPM=((2)/2)"
attr network Base
attr processid 11096
attr repetition 0
attr replication #0
attr resultdir results
attr runnumber 0
attr seedset 0
param **.configurator.addStaticRoutes false
param **.configurator.config "xml(\"<config><interface hosts='*' address='10.10.x.x' netmask='255.255.0.0'/></config>\")"
param **.configurator.optimizeRoutes false
param **.forwarding true
param *.node*[*].wlan[*].mac.address "\"auto\""
param *.node*[*].wlan[*].mac.headerLength 10B
param *.node*[*].wlan[*].mac.mtu 0B
param *.node*[*].wlan[*].mac.numMasters ${NM}
param *.node*[*].wlan[*].mac.numSlots (${NM}+${NS})+1
param *.node*[*].wlan[*].mac.queueLength 10*${NS}
param *.node*[*].wlan[*].mac.reservedMobileSlots 0
param *.node*[*].wlan[*].mac.slotDuration 100ms
param *.node*[*].wlan[*].macType "\"CubeMacLayer\""
param *.node*[*].wlan[*].radio.transmitter.bitrate 2Mbps
param *.node*[*].wlan[*].radio.transmitter.detectionRange 0m
param *.node*[*].wlan[*].radio.transmitter.headerBitLength 100b
param *.node*[*].wlan[*].radio.transmitter.interferenceRange 0m
param *.node*[*].wlan[*].radio.transmitter.preambleDuration 0s
param *.node*[*].wlan[*].radioType "\"IdealRadio\""
param *.node*[*].wlan[*].typename "\"WirelessNic\""
param *.node*[*].wlan[0].radio.displayCommunicationRange true
param *.node*[*].wlan[0].radio.receiver.ignoreInterference true
param *.nodeMaster[*].**.cx 500m
param *.nodeMaster[*].**.cy 500m
param *.nodeMaster[*].**.cz 0m
param *.nodeMaster[*].**.r 50m
param *.nodeMaster[*].**.startAngle "parentIndex() * (360deg/${NM})"
param *.nodeMaster[*].mobilityType "\"CircleMobility\""
param *.nodeMaster[*].numUdpApps 1
param *.nodeMaster[*].udpApp[0].localPort 5000
param *.nodeMaster[*].udpApp[0].typename "\"UDPSink\""
param *.nodeMaster[*].wlan[*].radio.transmitter.communicationRange 150m
param *.nodeSlave[*].**.cx 500m
param *.nodeSlave[*].**.cy 500m
param *.nodeSlave[*].**.cz 0m
param *.nodeSlave[*].**.r 75m
param *.nodeSlave[*].mobilityType "\"CircleMobility\""
param *.nodeSlave[*].numUdpApps 1
param *.nodeSlave[*].udpApp[0].destAddresses "\"nodeMaster[0]\""
param *.nodeSlave[*].udpApp[0].destPort 5000
param *.nodeSlave[*].udpApp[0].messageLength exponential(128B)
param *.nodeSlave[*].udpApp[0].packetName "\"UDPDataSlave\""
param *.nodeSlave[*].udpApp[0].sendInterval exponential(100ms)
param *.nodeSlave[*].udpApp[0].startTime 30s
param *.nodeSlave[*].udpApp[0].typename "\"UDPBasicApp\""
param *.nodeSlave[*].wlan[*].mac.isSlave true
param *.nodeSlave[*].wlan[*].radio.transmitter.communicationRange 50m
param *.nodeSlave[0].**.startAngle "(parentIndex() * (360deg/${NM})) + 5deg"
param *.nodeSlave[1].**.startAngle "(parentIndex() * (360deg/${NM})) - 5deg"
param *.numMasters ${NM=2}
param *.numSlaves ${NS=(${NM})}
param *.radioMediumType "\"IdealRadioMedium\""
param *.slavesPerMaster ${SPM=(${NS}/${NM})}
param *.visualizer.dataLinkVisualizer.packetNameFilter "\"UDPData*\""
param *.visualizer.networkRouteVisualizer.packetNameFilter "\"UDPData*\""
param *.visualizer.physicalLinkVisualizer.packetNameFilter "\"UDPData*\""

vector 13  Base.nodeMaster[0].wlan[0].radio  radioMode:vector  ETV
attr interpolationmode  sample-hold
attr source  radioModeChanged
attr title  "Radio mode, vector"
vector 29  Base.nodeMaster[1].wlan[0].radio  radioMode:vector  ETV
attr interpolationmode  sample-hold
attr source  radioModeChanged
attr title  "Radio mode, vector"
vector 46  Base.nodeSlave[0].wlan[0].radio  radioMode:vector  ETV
attr interpolationmode  sample-hold
attr source  radioModeChanged
attr title  "Radio mode, vector"
vector 63  Base.nodeSlave[1].wlan[0].radio  radioMode:vector  ETV
attr interpolationmode  sample-hold
attr source  radioModeChanged
attr title  "Radio mode, vector"
vector 14  Base.nodeMaster[0].wlan[0].radio  receptionState:vector  ETV
attr interpolationmode  sample-hold
attr source  receptionStateChanged
attr title  "Radio reception state, vector"
vector 30  Base.nodeMaster[1].wlan[0].radio  receptionState:vector  ETV
attr interpolationmode  sample-hold
attr source  receptionStateChanged
attr title  "Radio reception state, vector"
vector 47  Base.nodeSlave[0].wlan[0].radio  receptionState:vector  ETV
attr interpolationmode  sample-hold
attr source  receptionStateChanged
attr title  "Radio reception state, vector"
vector 64  Base.nodeSlave[1].wlan[0].radio  receptionState:vector  ETV
attr interpolationmode  sample-hold
attr source  receptionStateChanged
attr title  "Radio reception state, vector"
vector 15  Base.nodeMaster[0].wlan[0].radio  transmissionState:vector  ETV
attr interpolationmode  sample-hold
attr source  transmissionStateChanged
attr title  "Radio transmission state, vector"
vector 31  Base.nodeMaster[1].wlan[0].radio  transmissionState:vector  ETV
attr interpolationmode  sample-hold
attr source  transmissionStateChanged
attr title  "Radio transmission state, vector"
vector 48  Base.nodeSlave[0].wlan[0].radio  transmissionState:vector  ETV
attr interpolationmode  sample-hold
attr source  transmissionStateChanged
attr title  "Radio transmission state, vector"
vector 65  Base.nodeSlave[1].wlan[0].radio  transmissionState:vector  ETV
attr interpolationmode  sample-hold
attr source  transmissionStateChanged
attr title  "Radio transmission state, vector"
vector 33  Base.nodeSlave[0].udpApp[0]  sentPk:vector(packetBytes)  ETV
attr interpolationmode  none
attr source  sentPk
attr title  "packets sent, vector(packetBytes)"
vector 50  Base.nodeSlave[1].udpApp[0]  sentPk:vector(packetBytes)  ETV
attr interpolationmode  none
attr source  sentPk
attr title  "packets sent, vector(packetBytes)"
vector 36  Base.nodeSlave[0].udp  sentPk:vector(packetBytes)  ETV
attr interpolationmode  none
attr source  sentPk
attr title  "packets sent, vector(packetBytes)"
vector 53  Base.nodeSlave[1].udp  sentPk:vector(packetBytes)  ETV
attr interpolationmode  none
attr source  sentPk
attr title  "packets sent, vector(packetBytes)"
vector 8  Base.nodeMaster[0].networkLayer.arp  sentReq:vector  ETV
attr title  "ARP request sent, vector"
vector 25  Base.nodeMaster[1].networkLayer.arp  sentReply:vector  ETV
attr title  "ARP replies sent, vector"
vector 24  Base.nodeMaster[1].networkLayer.arp  sentReq:vector  ETV
attr title  "ARP request sent, vector"
vector 42  Base.nodeSlave[0].networkLayer.arp  sentReply:vector  ETV
attr title  "ARP replies sent, vector"
vector 59  Base.nodeSlave[1].networkLayer.arp  sentReply:vector  ETV
attr title  "ARP replies sent, vector"
vector 4  Base.nodeMaster[0].udp  rcvdPk:vector(packetBytes)  ETV
attr interpolationmode  none
attr source  rcvdPk
attr title  "packets received, vector(packetBytes)"
vector 5  Base.nodeMaster[0].udp  passedUpPk:vector(count)  ETV
attr interpolationmode  none
attr title  "packets passed up, vector(count)"
vector 0  Base.nodeMaster[0].udpApp[0]  rcvdPk:vector(packetBytes)  ETV
attr interpolationmode  none
attr source  rcvdPk
attr title  "packets received, vector(packetBytes)"
vector 1  Base.nodeMaster[0].udpApp[0]  endToEndDelay:vector  ETV
attr interpolationmode  none
attr source  messageAge(rcvdPk)
attr title  "end-to-end delay, vector"
attr unit  s
vector 2  Base.nodeMaster[0].udpApp[0]  rcvdPkSeqNo:vector  ETV
attr interpolationmode  none
attr source  appPkSeqNo(rcvdPk)
attr title  "received packet sequence number, vector"
vector 58  Base.nodeSlave[1].networkLayer.arp  sentReq:vector  ETV
attr title  "ARP request sent, vector"
vector 41  Base.nodeSlave[0].networkLayer.arp  sentReq:vector  ETV
attr title  "ARP request sent, vector"
vector 9  Base.nodeMaster[0].networkLayer.arp  sentReply:vector  ETV
attr title  "ARP replies sent, vector"
0	18537	35.903479221058	238
0	18584	36.003381593563	101
0	18702	36.403380374255	7
0	18737	36.503801286182	125
0	18851	36.902291406873	61
0	18892	37.002950901832	73
0	19027	37.403706527156	83
0	19078	37.504008941036	332
0	19201	37.90278505447	2
0	19238	38.002061948594	52
0	19363	38.402848734068	205
0	19394	38.504595501296	403
0	19516	38.903001953344	94
0	19555	39.003922497074	261
0	19681	39.403231418846	16
0	19730	39.502493461606	94
0	19866	39.902819983602	98
0	19907	40.002878192101	82
0	20052	40.402216243269	31
0	20091	40.503611548368	190
0	20205	40.903281514432	20
0	20246	41.002391539131	2
0	20368	41.402661503617	122
0	20411	41.503938059037	146
0	20533	41.902493212508	153
0	20568	42.003276056475	121
0	20694	42.403826736505	448
0	20731	42.503052161587	142
0	20843	42.902861542634	57
0	20890	43.00352401882	56
0	21025	43.402860438243	5
0	21064	43.505442298795	570
0	21202	43.905640830737	686
0	21245	44.00374135067	135
0	21381	44.403438398595	82
0	21428	44.503422816277	37
0	21554	44.903243209394	220
0	21595	45.002119824917	22
0	21703	45.403320906297	124
0	21740	45.502865949024	143
0	21857	45.903020322159	269
0	21896	46.004335922344	427
0	22010	46.403273156677	256
0	22057	46.503563261928	77
0	22183	46.903651046581	369
0	22227	47.003321910233	8
0	22358	47.402973380833	145
0	22391	47.50258465746	126
0	22503	47.901952577602	33
0	22546	48.004233835333	210
0	22672	48.402315719075	83
0	22711	48.503716676283	176
0	22842	48.903139005526	50
0	22879	49.002864760446	196
0	22991	49.402061472462	16
0	23028	49.50301399673	44
0	23156	49.902728602807	31
0	23192	50.003451927761	199
0	23317	50.403565422327	111
0	23356	50.503590393942	166
0	23466	50.903340542724	1
0	23499	51.001945447572	5
0	23631	51.402208156603	1
0	23672	51.503091625643	146
0	23793	51.902801953693	77
0	23834	52.003019544154	153
0	23963	52.402939702332	86
0	24002	52.503269172718	104
0	24141	52.902094762174	22
0	24182	53.002898177917	56
0	24316	53.40320820246	71
0	24353	53.502258843535	37
0	24493	53.903552278596	70
0	24528	54.003968934053	207
0	24643	54.403433939539	145
0	24682	54.503389673349	7
0	24804	54.902456616989	9
0	24851	55.003402042749	93
0	24957	55.402072683267	61
0	25002	55.502991331763	2
0	25118	55.903754253622	385
0	25153	56.003504525626	90
0	25269	56.40328735497	158
0	25312	56.503319875996	54
0	25451	56.902826125428	41
0	25498	57.003375780012	57
0	25616	57.403321775666	95
0	25663	57.503692907246	421
0	25777	57.904439117933	281
0	25816	58.004042992562	279
0	25958	58.402878872209	124
0	25987	58.502222293356	16
0	26111	58.904064914025	458
0	26146	59.004136854597	309
0	26267	59.403131691337	99
0	26296	59.50236088101	119
0	26428	59.902800310369	22
0	26469	60.002320007654	78
0	26585	60.402323357307	5
0	26618	60.501864117488	15
0	26754	60.903254627546	50
0	26789	61.004563569311	352
0	26911	61.402351729466	114
0	26944	61.50311772085	147
0	27073	61.903409669125	282
0	27106	62.002575473749	7
0	27216	62.402602567001	116
0	27249	62.502293216306	3
0	27385	62.902388063154	123
0	27428	63.003557483079	59
0	27554	63.402815214824	65
0	27587	63.502067438222	70
0	27711	63.902380329396	65
0	27748	64.003076196217	41
0	27864	64.403423367787	188
0	27901	64.503154074419	39
0	28023	64.902379227268	140
0	28060	65.002861510516	190
0	28205	65.402296505668	0
0	28250	65.502815524542	73
0	28358	65.902178049104	4
0	28407	66.002951705139	120
0	28523	66.405522280603	616
0	28552	66.502554550075	158
0	28680	66.902966279096	71
0	28713	67.002318448517	66
0	28841	67.403321190431	16
0	28882	67.502966641751	44
0	29009	67.90252458241	77
0	29046	68.002292252979	4
0	29166	68.402882051543	160
0	29213	68.503927109311	183
0	29323	68.901841423757	4
0	29360	69.002981962624	188
0	29472	69.402134385026	24
0	29503	69.503879644459	345
0	29621	69.903176341971	26
0	29664	70.003537080564	294
0	29782	70.403648649162	269
0	29833	70.503686601661	224
0	29954	70.903317830069	280
0	29987	71.003024264785	37
0	30127	71.402654831519	52
0	30168	71.50239018088	22
0	30288	71.90326215797	189
0	30333	72.002834381687	167
0	30433	72.40260847465	20
0	30464	72.503367209604	114
0	30582	72.903252445554	245
0	30619	73.002249939942	68
0	30760	73.404810167257	449
0	30796	73.503357426471	93
0	30907	73.903065859886	127
0	30952	74.002669558847	124
0	31072	74.403088903719	242
0	31115	74.503721540457	95
0	31213	74.903260903335	99
0	31262	75.002755397721	8
0	31386	75.402571610352	33
0	31427	75.503152151199	156
0	31552	75.903039737234	76
0	31591	76.00493554113	398
0	31722	76.402749615379	200
0	31766	76.503791214565	102
0	31892	76.90425523834	228
0	31927	77.003497885923	195
0	32033	77.403957473302	275
0	32070	77.502965069841	141
0	32186	77.904346151191	268
0	32231	78.002350962029	63
0	32336	78.402195246244	4
0	32365	78.502087551517	22
0	32473	78.903376408805	9
0	32506	79.003061170296	185
0	32636	79.402340433328	9
0	32687	79.503772124575	344
0	32813	79.902713339113	40
0	32856	80.003508099304	70
0	32986	80.403973242746	205
0	33023	80.502312847207	2
0	33139	80.90390386392	204
0	33190	81.003652518598	195
0	33297	81.403683146541	224
0	33334	81.502669564536	35
0	33439	81.904657481956	364
0	33476	82.002117999532	35
0	33605	82.402351174926	92
0	33638	82.503068105002	88
0	33758	82.901969675335	14
0	33795	83.002889807821	56
0	33935	83.403923124043	177
0	33970	83.503462619972	74
0	34105	83.904859255902	397
0	34140	84.003260199432	324
0	34254	84.402787273395	48
0	34287	84.502410769117	101
0	34424	84.904502630393	521
0	34461	85.002133763915	8
0	34582	85.402591841461	187
0	34627	85.502625989781	32
0	34739	85.902435390865	64
0	34776	86.002050643433	46
0	34921	86.403419518487	221
0	34968	86.503652155644	278
0	35074	86.90245094134	88
0	35111	87.003104902805	72
0	35223	87.402798759326	59
0	35264	87.503200620013	21
0	35394	87.903833501004	402
0	35445	88.003502004269	311
0	35587	88.40393205896	153
0	35624	88.502194145213	8
0	35736	88.902380785389	28
0	35779	89.004547256696	369
0	35918	89.403499736336	143
0	35951	89.502591962877	21
0	36083	89.902226027714	6
0	36124	90.002925271158	48
0	36256	90.402516668558	177
0	36296	90.503949717394	450
0	36415	90.902926351959	276
0	36448	91.003055266298	46
0	36572	91.4033782739	95
0	36607	91.504026570107	339
0	36726	91.903171175817	142
0	36763	92.003085259422	5
0	36903	92.402087303374	57
0	36932	92.502653676756	28
0	37048	92.901801246557	4
0	37089	93.002555829334	151
0	37237	93.403685069046	85
0	37271	93.502632902284	132
0	37396	93.904806898074	496
0	37431	94.003331018946	140
0	37553	94.403308589543	86
0	37596	94.503308125523	188
0	37743	94.903469952875	254
0	37782	95.003379862505	220
0	37896	95.402698768403	73
0	37925	95.502451036519	64
0	38065	95.904076079422	174
0	38098	96.003072266687	117
0	38219	96.402044690391	53
0	38259	96.504067879656	356
0	38369	96.903487289417	224
0	38410	97.002694480399	35
0	38539	97.402550588513	168
0	38582	97.503532032206	84
0	38700	97.903355829413	130
0	38745	98.002582283291	113
0	38881	98.402886871665	105
0	38914	98.502029719969	14
0	39046	98.902410516806	65
0	39099	99.003208489118	102
0	39212	99.403187961412	5
0	39246	99.502761130932	71
0	39363	99.903652602663	166
0	39408	100.002698882282	73
0	39536	100.402972204025	31
0	39573	100.503069279256	107
0	39693	100.90298164737	84
0	39736	101.003760652511	159
0	39866	101.402210972402	78
0	39909	101.503272389669	301
0	40043	101.901945637595	25
0	40085	102.002578992676	31
0	40195	102.402609685298	58
0	40240	102.502873437097	29
0	40372	102.903343776979	37
0	40413	103.002187889741	63
0	40533	103.404067870762	406
0	40574	103.502284027261	42
0	40698	103.903706719055	245
0	40739	104.002171730977	32
0	40863	104.403343051706	153
0	40900	104.50264086944	16
0	41033	104.904138842149	374
0	41067	105.002112237748	78
0	41188	105.403219811936	5
0	41219	105.503796925031	140
0	41349	105.902782491394	47
0	41392	106.004230536563	277
0	41510	106.404574755679	328
0	41543	106.502774853561	160
0	41667	106.903011729182	236
0	41700	107.002507101392	76
0	41840	107.402705885861	133
0	41875	107.503739066275	103
0	41996	107.902400333241	114
0	42043	108.003645120515	138
0	42161	108.402187306938	21
0	42198	108.502837449977	22
0	42322	108.902480888008	131
0	42363	109.002993739204	61
0	42479	109.403443868463	395
0	42514	109.503326397729	35
0	42612	109.903266940288	3
0	42653	110.002220600424	80
0	42773	110.402627795743	140
0	42810	110.50225180593	93
0	42941	110.904783970577	471
0	42978	111.003001418748	256
0	43122	111.402795952066	22
0	43155	111.503090021537	71
0	43283	111.903291921389	10
0	43328	112.003190516481	3
0	43436	112.402337882173	53
0	43477	112.502317721497	47
0	43593	112.902587715345	28
0	43636	113.004245839788	449
0	43767	113.403549644698	41
0	43802	113.503306617667	10
0	43942	113.903813745063	217
0	43981	114.00383047092	128
0	44107	114.403083007937	24
0	44144	114.502982185941	111
0	44260	114.903715090522	164
0	44303	115.003687032707	77
0	44413	115.402573756609	112
0	44454	115.503064538257	131
0	44578	115.902826220367	130
0	44623	116.002515496335	9
0	44736	116.402929403583	39
0	44772	116.503704605987	96
0	44891	116.902408887137	112
0	44934	117.003269481745	321
0	45060	117.403104013218	57
0	45093	117.502767343059	44
0	45233	117.904098485116	498
0	45276	118.003371920513	34
0	45398	118.40247740598	111
0	45437	118.503847688095	134
0	45560	118.90251388215	97
0	45601	119.002255569181	88
0	45738	119.404096765833	399
0	45771	119.50258938457	9
0	45888	119.902174449032	90
0	45931	120.003643616768	69
0	46053	120.404790795161	621
0	46088	120.503461539434	40
0	46198	120.902726703022	50
0	46247	121.0024357276	15
0	46383	121.403458635427	32
0	46426	121.503331782076	20
0	46545	121.90342844006	109
0	46590	122.003056977749	38
0	46703	122.403321644681	34
0	46734	122.504596013376	355
0	46849	122.903555135323	177
0	46902	123.002862262886	51
0	47026	123.402605701733	53
0	47061	123.504220776212	258
0	47191	123.903518763207	34
0	47248	124.003195845809	91
0	47381	124.403928056659	220
0	47420	124.503891079856	285
0	47518	124.903237242007	84
0	47559	125.002051225909	19
0	47700	125.402442174377	22
0	47729	125.502670155788	42
0	47866	125.902552262782	16
0	47907	126.003023069521	27
0	48023	126.40247804469	97
0	48058	126.503256809741	165
0	48201	126.903962723598	206
0	48242	127.002365408812	110
0	48366	127.402763502021	133
0	48399	127.502399513565	64
0	48519	127.902320418913	64
0	48558	128.003940660173	300
0	48685	128.40254922289	95
0	48714	128.503043305878	148
0	48847	128.902916663141	106
0	48886	129.004311133408	272
0	49008	129.403033622113	35
0	49047	129.5043661307	546
0	49178	129.903195012001	15
0	49221	130.003752391514	276
0	49359	130.401976308071	2
0	49400	130.502514914337	144
0	49512	130.904518869126	393
0	49553	131.002011885182	15
0	49687	131.402261577495	3
0	49722	131.503932780898	236
0	49848	131.902266299024	28
0	49885	132.002329331579	115
0	50022	132.403291615178	143
0	50061	132.503407297745	25
0	50167	132.903030038998	146
0	50204	133.002508692741	21
0	50332	133.403534022576	91
0	50363	133.503497691976	250
0	50473	133.902359532017	25
0	50522	134.002177215533	91
0	50652	134.402242408878	15
0	50683	134.503835157003	248
0	50818	134.903587839029	79
0	50873	135.00324054483	39
0	51011	135.404462377194	271
0	51054	135.504347426621	555
0	51184	135.902481954362	49
0	51229	136.002565087939	47
0	51365	136.404016806621	430
0	51400	136.504821812257	447
0	51510	136.902934047929	58
0	51557	137.003321887933	89
0	51681	137.402998545242	6
0	51722	137.502488092221	65
0	51843	137.904048616719	383
0	51880	138.002531478316	73
0	51996	138.403273518869	41
0	52025	138.502436499739	82
0	52129	138.902080987919	17
0	52166	139.00258555677	20
0	52274	139.402066169288	51
0	52307	139.502526641408	182
0	52431	139.902622366357	39
0	52472	140.002874298511	258
0	52587	140.402743404457	106
0	52628	140.502744952956	206
0	52768	140.90350757024	212
0	52811	141.003271806282	1
0	52929	141.403097585228	17
0	52972	141.503438842892	216
0	53082	141.903700274902	217
0	53129	142.003621235284	459
0	53243	142.403828706854	363
0	53280	142.502893609118	148
0	53425	142.901867301571	15
0	53475	143.003058238535	68
0	53596	143.402711646934	153
0	53635	143.504427662489	435
0	53761	143.903323544026	265
0	53808	144.003317634692	232
0	53914	144.403390279198	66
0	53953	144.503770083025	202
0	54075	144.903911207731	195
0	54114	145.006397568123	786
0	54248	145.403095231665	253
0	54281	145.502386306975	53
0	54423	145.901966191142	20
0	54473	146.002768843905	109
0	54581	146.403029909402	6
0	54618	146.502959646593	181
0	54734	146.904612603319	423
0	54785	147.003893989684	337
0	54911	147.402562042875	47
0	54956	147.502359425012	117
0	55084	147.903295732882	16
0	55123	148.003476320878	168
0	55258	148.403545931472	106
0	55295	148.502087972838	65
0	55440	148.903378500877	203
0	55482	149.002864635722	1
0	55606	149.403626465238	166
0	55639	149.50259318478	176
0	55779	149.902076643391	23
0	55816	150.003082574102	178
0	55940	150.402427097974	11
0	55977	150.502238754627	98
0	56110	150.903609786634	354
0	56159	151.002550124065	77
0	56291	151.401864404661	11
0	56328	151.502014478615	55
0	56449	151.903615139782	368
0	56483	152.002106661354	76
0	56607	152.403752050879	153
0	56662	152.505514658653	566
0	56780	152.904563102189	408
0	56821	153.003020357149	52
0	56946	153.403877844013	150
0	56985	153.503463054955	47
0	57115	153.902382560714	63
0	57169	154.002644864735	134
0	57283	154.402726783651	69
0	57322	154.503346535636	99
0	57445	154.903584181187	185
0	57489	155.002926502064	73
0	57594	155.403411386521	142
0	57625	155.503429587103	56
0	57748	155.902461649863	80
0	57795	156.003833288489	253
0	57984	156.503945048402	174
0	58160	157.003585088127	183
0	58286	157.402291039317	41
0	58331	157.502026606038	31
0	58462	157.903615353193	152
0	58498	158.005040449773	454
0	58630	158.402905113019	42
0	58674	158.502874164732	231
0	58794	158.903623950312	89
0	58838	159.002832932492	57
0	58957	159.402249748651	80
0	58993	159.50295202961	99
0	59117	159.902925811939	179
0	59165	160.003134995622	252
0	59300	160.404229364526	363
0	59336	160.503111090996	120
0	59471	160.903167764561	156
0	59517	161.003449811317	93
0	59640	161.402411698626	33
0	59669	161.502993715581	166
0	59800	161.903101035571	13
0	59839	162.002676084249	22
0	59968	162.404318825519	451
0	60012	162.503307940947	12
0	60127	162.902803341133	67
0	60177	163.003683348558	107
0	60331	163.403166804532	89
0	60364	163.502668788641	36
0	60472	163.902285091524	5
0	60511	164.003724119795	123
0	60618	164.402505796971	27
0	60650	164.503033281098	152
0	60776	164.903147598193	125
0	60818	165.003265942148	2
0	60948	165.403527235433	92
0	61144	165.903506766765	158
0	61305	166.403346563675	207
0	61829	167.902727368585	61
0	62012	168.40232852652	25
0	62191	168.902393355222	78
0	62356	169.402739908906	6
0	62516	169.903277433449	52
0	62719	170.402054543825	68
1	18537	35.903479221058	5.903479221058
1	18584	36.003381593563	6.003381593563
1	18702	36.403380374255	6.208225840667
1	18737	36.503801286182	6.378208210377
1	18851	36.902291406873	6.675301259201
1	18892	37.002950901832	6.828845009655
1	19027	37.403706527156	7.019826767722
1	19078	37.504008941036	7.107550606655
1	19201	37.90278505447	7.469018094134
1	19238	38.002061948594	7.598235078666
1	19363	38.402848734068	7.790333007388
1	19394	38.504595501296	7.996307380537
1	19516	38.903001953344	8.228593280701
1	19555	39.003922497074	8.480511290949
1	19681	39.403231418846	8.615228852032
1	19730	39.502493461606	8.594560068567
1	19866	39.902819983602	9.012674229353
1	19907	40.002878192101	9.041388227039
1	20052	40.402216243269	9.369934021011
1	20091	40.503611548368	9.521501255103
1	20205	40.903281514432	9.856471489445
1	20246	41.002391539131	9.959373003548
1	20368	41.402661503617	10.330707285423
1	20411	41.503938059037	10.364781429547
1	20533	41.902493212508	10.542747492186
1	20568	42.003276056475	10.81956757748
1	20694	42.403826736505	11.037869487136
1	20731	42.503052161587	11.086708576423
1	20843	42.902861542634	11.431020880116
1	20890	43.00352401882	11.563559763048
1	21025	43.402860438243	11.846576996372
1	21064	43.505442298795	11.926573774044
1	21202	43.905640830737	12.248770288349
1	21245	44.00374135067	12.414109315103
1	21381	44.403438398595	12.659376270844
1	21428	44.503422816277	12.812988856168
1	21554	44.903243209394	13.061494674236
1	21595	45.002119824917	13.248891706709
1	21703	45.403320906297	13.551357882987
1	21740	45.502865949024	13.737942289837
1	21857	45.903020322159	13.939075862274
1	21896	46.004335922344	10.049532316598
1	22010	46.403273156677	11.753751264305
1	22057	46.503563261928	10.467961650842
1	22183	46.903651046581	11.712224641793
1	22227	47.003321910233	10.403639643872
1	22358	47.402973380833	11.756827114604
1	22391	47.50258465746	10.327380162824
1	22503	47.901952577602	11.742337449943
1	22546	48.004233835333	10.41492665444
1	22672	48.402315719075	11.79550614919
1	22711	48.503716676283	10.396242128394
1	22842	48.903139005526	11.765562294054
1	22879	49.002864760446	10.454789262339
1	22991	49.402061472462	11.688246256176
1	23028	49.50301399673	10.435101532959
1	23156	49.902728602807	11.795100360512
1	23192	50.003451927761	10.476797418365
1	23317	50.403565422327	11.774551302588
1	23356	50.503590393942	10.485457416178
1	23466	50.903340542724	11.676787489125
1	23499	51.001945447572	10.303746661147
1	23631	51.402208156603	11.631343123593
1	23672	51.503091625643	10.437425777306
1	23793	51.902801953693	11.791031713343
1	23834	52.003019544154	10.295806274759
1	23963	52.402939702332	11.625769761556
1	24002	52.503269172718	10.491347553524
1	24141	52.902094762174	11.794889226131
1	24182	53.002898177917	10.499496434873
1	24316	53.40320820246	11.752595011913
1	24353	53.502258843535	10.33042089782
1	24493	53.903552278596	11.65166687175
1	24528	54.003968934053	10.476095092507
1	24643	54.403433939539	11.666667655798
1	24682	54.503389673349	10.280314903273
1	24804	54.902456616989	11.761603586965
1	24851	55.003402042749	10.470016529787
1	24957	55.402072683267	11.779719888197
1	25002	55.502991331763	10.274045069898
1	25118	55.903754253622	11.735491040642
1	25153	56.003504525626	10.38546725472
1	25269	56.40328735497	11.681116450167
1	25312	56.503319875996	10.351139609095
1	25451	56.902826125428	11.649818847222
1	25498	57.003375780012	10.426614104668
1	25616	57.403321775666	11.653803637498
1	25663	57.503692907246	10.234590435803
1	25777	57.904439117933	11.758688472311
1	25816	58.004042992562	10.189315214297
1	25958	58.402878872209	11.625426193321
1	25987	58.502222293356	10.465391260938
1	26111	58.904064914025	11.781546838207
1	26146	59.004136854597	10.426523748833
1	26267	59.403131691337	11.796828245785
1	26296	59.50236088101	10.184086636509
1	26428	59.902800310369	11.475896429756
1	26469	60.002320007654	10.446588225887
1	26585	60.402323357307	11.747984064038
1	26618	60.501864117488	10.374622088699
1	26754	60.903254627546	11.791305307574
1	26789	61.004563569311	10.437493510554
1	26911	61.402351729466	11.652969497869
1	26944	61.50311772085	10.460722995535
1	27073	61.903409669125	11.79566885361
1	27106	62.002575473749	10.472476949968
1	27216	62.402602567001	11.556817390021
1	27249	62.502293216306	10.38691775903
1	27385	62.902388063154	11.76445638147
1	27428	63.003557483079	10.23875264284
1	27554	63.402815214824	11.696721162134
1	27587	63.502067438222	10.392851859616
1	27711	63.902380329396	11.71281989216
1	27748	64.003076196217	10.493724578897
1	27864	64.403423367787	11.740010103299
1	27901	64.503154074419	10.345566328785
1	28023	64.902379227268	11.688144760879
1	28060	65.002861510516	10.435413905282
1	28205	65.402296505668	11.772358288736
1	28250	65.502815524542	10.499791397988
1	28358	65.902178049104	11.563436173821
1	28407	66.002951705139	10.228307216128
1	28523	66.405522280603	11.713067560055
1	28552	66.502554550075	10.408126773841
1	28680	66.902966279096	11.75643819252
1	28713	67.002318448517	10.488918428124
1	28841	67.403321190431	11.731781523873
1	28882	67.502966641751	10.443824960363
1	29009	67.90252458241	11.720461192822
1	29046	68.002292252979	10.417110620105
1	29166	68.402882051543	11.689869138744
1	29213	68.503927109311	10.425634742063
1	29323	68.901841423757	11.720835496673
1	29360	69.002981962624	10.469470483949
1	29472	69.402134385026	11.677176874751
1	29503	69.503879644459	10.445290874766
1	29621	69.903176341971	11.786382362254
1	29664	70.003537080564	10.361208691015
1	29782	70.403648649162	11.76347399527
1	29833	70.503686601661	10.453979915975
1	29954	70.903317830069	11.666519606202
1	29987	71.003024264785	10.491654172671
1	30127	71.402654831519	11.795591560789
1	30168	71.50239018088	10.493458932754
1	30288	71.90326215797	11.721638829095
1	30333	72.002834381687	10.478936575595
1	30433	72.40260847465	11.793289691863
1	30464	72.503367209604	10.485912674829
1	30582	72.903252445554	11.645292456893
1	30619	73.002249939942	10.306053896656
1	30760	73.404810167257	11.801581033589
1	30796	73.503357426471	10.485016659249
1	30907	73.903065859886	11.385014363157
1	30952	74.002669558847	10.492548972889
1	31072	74.403088903719	11.680473299733
1	31115	74.503721540457	10.155293938204
1	31213	74.903260903335	11.793584557294
1	31262	75.002755397721	10.442129429953
1	31386	75.402571610352	11.800608594857
1	31427	75.503152151199	10.470312648188
1	31552	75.903039737234	11.797041892003
1	31591	76.00493554113	9.887171098268
1	31722	76.402749615379	11.499601205843
1	31766	76.503791214565	10.373490885437
1	31892	76.90425523834	11.791166925655
1	31927	77.003497885923	10.497272034958
1	32033	77.403957473302	11.79861550967
1	32070	77.502965069841	10.30626014592
1	32186	77.904346151191	11.541672181099
1	32231	78.002350962029	10.249969129202
1	32336	78.402195246244	11.579856957643
1	32365	78.502087551517	10.417149381535
1	32473	78.903376408805	11.616723036106
1	32506	79.003061170296	10.426890575234
1	32636	79.402340433328	11.669228495985
1	32687	79.503772124575	10.473665507513
1	32813	79.902713339113	11.782372172216
1	32856	80.003508099304	10.492404478667
1	32986	80.403973242746	11.711345111533
1	33023	80.502312847207	10.454337982793
1	33139	80.90390386392	11.545412080475
1	33190	81.003652518598	10.409333850118
1	33297	81.403683146541	11.705542301083
1	33334	81.502669564536	10.472796962178
1	33439	81.904657481956	11.713329377832
1	33476	82.002117999532	10.438519429538
1	33605	82.402351174926	11.763234156427
1	33638	82.503068105002	10.454346454263
1	33758	82.901969675335	11.734267149029
1	33795	83.002889807821	10.387494601427
1	33935	83.403923124043	11.675297927015
1	33970	83.503462619972	10.501200221355
1	34105	83.904859255902	11.737518073643
1	34140	84.003260199432	10.274047308766
1	34254	84.402787273395	11.744630612717
1	34287	84.502410769117	10.386075305315
1	34424	84.904502630393	11.792173190458
1	34461	85.002133763915	10.084859283793
1	34582	85.402591841461	11.3166918675
1	34627	85.502625989781	10.459986365844
1	34739	85.902435390865	11.692100909119
1	34776	86.002050643433	10.411261589394
1	34921	86.403419518487	11.709993627032
1	34968	86.503652155644	10.391802612693
1	35074	86.90245094134	11.784096632027
1	35111	87.003104902805	10.426196987175
1	35223	87.402798759326	11.660417915868
1	35264	87.503200620013	10.317205496381
1	35394	87.903833501004	11.791810071609
1	35445	88.003502004269	10.485205990694
1	35587	88.40393205896	11.703541732898
1	35624	88.502194145213	9.622350976834
1	35736	88.902380785389	11.475854121229
1	35779	89.004547256696	10.000358375343
1	35918	89.403499736336	11.652108996532
1	35951	89.502591962877	10.447883909764
1	36083	89.902226027714	11.591922851001
1	36124	90.002925271158	10.445602718915
1	36256	90.402516668558	11.706283795137
1	36296	90.503949717394	10.476375160937
1	36415	90.902926351959	11.584086658593
1	36448	91.003055266298	10.465318924856
1	36572	91.4033782739	11.780774749753
1	36607	91.504026570107	10.145843071762
1	36726	91.903171175817	11.782631339051
1	36763	92.003085259422	10.141313743225
1	36903	92.402087303374	11.683053266331
1	36932	92.502653676756	10.439877371364
1	37048	92.901801246557	11.454668114632
1	37089	93.002555829334	10.30803570584
1	37237	93.403685069046	11.797530984602
1	37271	93.502632902284	10.463990256463
1	37396	93.904806898074	11.67059425161
1	37431	94.003331018946	10.302491278435
1	37553	94.403308589543	11.650623862357
1	37596	94.503308125523	10.453029050206
1	37743	94.903469952875	11.797886637953
1	37782	95.003379862505	10.420226611069
1	37896	95.402698768403	11.779494780463
1	37925	95.502451036519	10.141736187878
1	38065	95.904076079422	11.737155169272
1	38098	96.003072266687	10.484789660052
1	38219	96.402044690391	11.775486581029
1	38259	96.504067879656	10.478353236224
1	38369	96.903487289417	11.697250457252
1	38410	97.002694480399	10.480649752278
1	38539	97.402550588513	11.750541555288
1	38582	97.503532032206	10.465821371916
1	38700	97.903355829413	11.781974635801
1	38745	98.002582283291	10.429107237253
1	38881	98.402886871665	11.598332197713
1	38914	98.502029719969	10.473451374785
1	39046	98.902410516806	11.789659829028
1	39099	99.003208489118	10.414757978619
1	39212	99.403187961412	11.778842469273
1	39246	99.502761130932	10.341496395915
1	39363	99.903652602663	11.795717657361
1	39408	100.002698882282	10.491724524795
1	39536	100.402972204025	11.612023991174
1	39573	100.503069279256	10.461401142981
1	39693	100.90298164737	11.769009206542
1	39736	101.003760652511	10.493240981178
1	39866	101.402210972402	11.774079874562
1	39909	101.503272389669	10.496686278567
1	40043	101.901945637595	11.616119740317
1	40085	102.002578992676	10.479154451764
1	40195	102.402609685298	11.773243712305
1	40240	102.502873437097	10.497551042964
1	40372	102.903343776979	11.726942411698
1	40413	103.002187889741	10.396439516943
1	40533	103.404067870762	11.740199632291
1	40574	103.502284027261	10.421814559577
1	40698	103.903706719055	11.795658169916
1	40739	104.002171730977	10.289944085354
1	40863	104.403343051706	11.761501020564
1	40900	104.50264086944	10.488532244596
1	41033	104.904138842149	11.759764116695
1	41067	105.002112237748	10.421581740897
1	41188	105.403219811936	11.764844837479
1	41219	105.503796925031	10.373554834422
1	41349	105.902782491394	11.799189631335
1	41392	106.004230536563	10.495007972652
1	41510	106.404574755679	11.776760799758
1	41543	106.502774853561	10.407101151387
1	41667	106.903011729182	11.756751955386
1	41700	107.002507101392	10.432838392172
1	41840	107.402705885861	11.786655991418
1	41875	107.503739066275	10.486609441179
1	41996	107.902400333241	11.743820302615
1	42043	108.003645120515	10.357035642866
1	42161	108.402187306938	11.688399188737
1	42198	108.502837449977	10.498625414963
1	42322	108.902480888008	11.549465882748
1	42363	109.002993739204	10.402480959485
1	42479	109.403443868463	11.754975393044
1	42514	109.503326397729	10.372643290435
1	42612	109.903266940288	11.796059426554
1	42653	110.002220600424	10.454644031748
1	42773	110.402627795743	11.731311359189
1	42810	110.50225180593	10.434858976438
1	42941	110.904783970577	11.684431369736
1	42978	111.003001418748	10.482162940624
1	43122	111.402795952066	11.760621585923
1	43155	111.503090021537	10.417541449642
1	43283	111.903291921389	11.800529113203
1	43328	112.003190516481	10.393282930925
1	43436	112.402337882173	11.774766304451
1	43477	112.502317721497	10.250302334822
1	43593	112.902587715345	11.799109680409
1	43636	113.004245839788	10.442499692333
1	43767	113.403549644698	11.761666859396
1	43802	113.503306617667	10.489500435444
1	43942	113.903813745063	11.654243799498
1	43981	114.00383047092	10.472444969995
1	44107	114.403083007937	11.682802566522
1	44144	114.502982185941	10.42303061519
1	44260	114.903715090522	11.679992147014
1	44303	115.003687032707	10.250523435218
1	44413	115.402573756609	11.678731521495
1	44454	115.503064538257	9.961106282302
1	44578	115.902826220367	11.69519507515
1	44623	116.002515496335	10.401410853106
1	44736	116.402929403583	11.787499004328
1	44772	116.503704605987	10.356892655331
1	44891	116.902408887137	11.781623981456
1	44934	117.003269481745	10.469191060152
1	45060	117.403104013218	11.79463011088
1	45093	117.502767343059	10.452514034583
1	45233	117.904098485116	11.708573390009
1	45276	118.003371920513	10.48027871202
1	45398	118.40247740598	11.75580817971
1	45437	118.503847688095	10.248809564231
1	45560	118.90251388215	11.671807534927
1	45601	119.002255569181	10.471768762259
1	45738	119.404096765833	11.605209945236
1	45771	119.50258938457	10.242799806883
1	45888	119.902174449032	11.78387089718
1	45931	120.003643616768	10.429788580198
1	46053	120.404790795161	11.689310682753
1	46088	120.503461539434	10.385383188642
1	46198	120.902726703022	11.779515959301
1	46247	121.0024357276	10.485453125307
1	46383	121.403458635427	11.48159411494
1	46426	121.503331782076	10.42591403332
1	46545	121.90342844006	11.691710675674
1	46590	122.003056977749	10.434850443331
1	46703	122.403321644681	11.63691481059
1	46734	122.504596013376	10.349771976873
1	46849	122.903555135323	11.790576164097
1	46902	123.002862262886	10.354359130789
1	47026	123.402605701733	11.78805885299
1	47061	123.504220776212	10.499447248324
1	47191	123.903518763207	11.799942151551
1	47248	124.003195845809	10.164817204162
1	47381	124.403928056659	11.743071825848
1	47420	124.503891079856	10.417144622433
1	47518	124.903237242007	11.774103763089
1	47559	125.002051225909	10.263205818408
1	47700	125.402442174377	11.746367198707
1	47729	125.502670155788	10.333672782327
1	47866	125.902552262782	11.774298357115
1	47907	126.003023069521	10.423978205372
1	48023	126.40247804469	11.785940112615
1	48058	126.503256809741	10.160861574366
1	48201	126.903962723598	11.521769027687
1	48242	127.002365408812	10.40716870554
1	48366	127.402763502021	11.791016613657
1	48399	127.502399513565	10.266304978205
1	48519	127.902320418913	11.628865869589
1	48558	128.003940660173	10.389290229686
1	48685	128.40254922289	11.693616353234
1	48714	128.503043305878	10.404668428053
1	48847	128.902916663141	11.75901632115
1	48886	129.004311133408	10.326153143135
1	49008	129.403033622113	11.665095623236
1	49047	129.5043661307	10.466864336513
1	49178	129.903195012001	11.593141001451
1	49221	130.003752391514	10.480467656825
1	49359	130.401976308071	11.755723048794
1	49400	130.502514914337	10.336454571039
1	49512	130.904518869126	11.779791004786
1	49553	131.002011885182	10.450561351529
1	49687	131.402261577495	11.736752213679
1	49722	131.503932780898	10.478363725913
1	49848	131.902266299024	11.790290837206
1	49885	132.002329331579	10.22294932864
1	50022	132.403291615178	11.791292841671
1	50061	132.503407297745	10.344535937262
1	50167	132.903030038998	11.737555592953
1	50204	133.002508692741	10.409724486881
1	50332	133.403534022576	11.68184278053
1	50363	133.503497691976	10.331331949718
1	50473	133.902359532017	11.71289436608
1	50522	134.002177215533	10.362690770913
1	50652	134.402242408878	11.798608405673
1	50683	134.503835157003	10.462894472068
1	50818	134.903587839029	11.785089764753
1	50873	135.00324054483	10.363040948588
1	51011	135.404462377194	11.650663464302
1	51054	135.504347426621	10.481675925976
1	51184	135.902481954362	11.778309904432
1	51229	136.002565087939	10.346993480952
1	51365	136.404016806621	11.565110552949
1	51400	136.504821812257	10.384308000798
1	51510	136.902934047929	11.780612194361
1	51557	137.003321887933	10.389244430847
1	51681	137.402998545242	11.799592553823
1	51722	137.502488092221	10.482821017277
1	51843	137.904048616719	11.617935193582
1	51880	138.002531478316	10.35963533379
1	51996	138.403273518869	11.700516041554
1	52025	138.502436499739	10.445707286376
1	52129	138.902080987919	11.710768609436
1	52166	139.00258555677	10.439738749089
1	52274	139.402066169288	11.688927114105
1	52307	139.502526641408	10.443326977226
1	52431	139.902622366357	11.790498167979
1	52472	140.002874298511	10.479237780456
1	52587	140.402743404457	11.699809600885
1	52628	140.502744952956	10.4245924887
1	52768	140.90350757024	11.743271108727
1	52811	141.003271806282	10.346931294854
1	52929	141.403097585228	11.503639962979
1	52972	141.503438842892	10.458115923482
1	53082	141.903700274902	11.70973386585
1	53129	142.003621235284	10.287898346157
1	53243	142.403828706854	11.74475254571
1	53280	142.502893609118	10.48240532932
1	53425	142.901867301571	11.796153974603
1	53475	143.003058238535	10.165122065146
1	53596	143.402711646934	11.741197253863
1	53635	143.504427662489	10.380553226086
1	53761	143.903323544026	11.778035090937
1	53808	144.003317634692	10.387846945417
1	53914	144.403390279198	11.697855620131
1	53953	144.503770083025	10.458032591088
1	54075	144.903911207731	11.76328213706
1	54114	145.006397568123	10.439916948328
1	54248	145.403095231665	11.779069835363
1	54281	145.502386306975	10.410425539728
1	54423	145.901966191142	11.742641749867
1	54473	146.002768843905	10.427055567144
1	54581	146.403029909402	11.719801525392
1	54618	146.502959646593	10.352755939642
1	54734	146.904612603319	11.783941763685
1	54785	147.003893989684	10.145043900429
1	54911	147.402562042875	11.572465413832
1	54956	147.502359425012	10.472982805225
1	55084	147.903295732882	11.694599398568
1	55123	148.003476320878	10.261693992403
1	55258	148.403545931472	11.704444368581
1	55295	148.502087972838	10.41424175173
1	55440	148.903378500877	11.683704293753
1	55482	149.002864635722	10.066950253649
1	55606	149.403626465238	11.67851388781
1	55639	149.50259318478	10.224045581038
1	55779	149.902076643391	11.564295741007
1	55816	150.003082574102	10.468022291425
1	55940	150.402427097974	11.74619563779
1	55977	150.502238754627	10.150306705095
1	56110	150.903609786634	11.597108528511
1	56159	151.002550124065	10.424586564445
1	56291	151.401864404661	11.461026086097
1	56328	151.502014478615	10.457368881637
1	56449	151.903615139782	11.755559784169
1	56483	152.002106661354	10.454437908484
1	56607	152.403752050879	11.734204339407
1	56662	152.505514658653	10.458090599726
1	56780	152.904563102189	11.604171137902
1	56821	153.003020357149	10.480006865846
1	56946	153.403877844013	11.795843566664
1	56985	153.503463054955	10.49790697903
1	57115	153.902382560714	11.709645421492
1	57169	154.002644864735	10.480020417104
1	57283	154.402726783651	11.579569162175
1	57322	154.503346535636	10.24293855027
1	57445	154.903584181187	11.798132877605
1	57489	155.002926502064	10.203385763646
1	57594	155.403411386521	11.724700388807
1	57625	155.503429587103	10.452739502817
1	57748	155.902461649863	11.684820916598
1	57795	156.003833288489	10.407291844634
1	57984	156.503945048402	10.354943631219
1	58160	157.003585088127	10.4872522424
1	58286	157.402291039317	12.787930282628
1	58331	157.502026606038	10.469061276907
1	58462	157.903615353193	12.684734669775
1	58498	158.005040449773	10.446180523684
1	58630	158.402905113019	12.72083217865
1	58674	158.502874164732	10.487055685593
1	58794	158.903623950312	12.65898411524
1	58838	159.002832932492	10.42029756007
1	58957	159.402249748651	12.762450372921
1	58993	159.50295202961	10.498543677007
1	59117	159.902925811939	12.713143002748
1	59165	160.003134995622	10.493072859258
1	59300	160.404229364526	12.721879638177
1	59336	160.503111090996	10.419806835086
1	59471	160.903167764561	12.614511325928
1	59517	161.003449811317	10.400111561055
1	59640	161.402411698626	12.798438700595
1	59669	161.502993715581	10.457630887599
1	59800	161.903101035571	12.707629963366
1	59839	162.002676084249	10.418416597278
1	59968	162.404318825519	12.762417539118
1	60012	162.503307940947	10.42227581725
1	60127	162.902803341133	12.717303338063
1	60177	163.003683348558	10.173589329186
1	60331	163.403166804532	12.550597857902
1	60364	163.502668788641	10.410512761906
1	60472	163.902285091524	12.79001390573
1	60511	164.003724119795	10.364642758303
1	60618	164.402505796971	12.635964861904
1	60650	164.503033281098	10.48926286499
1	60776	164.903147598193	12.7850014681
1	60818	165.003265942148	10.474037751592
1	60948	165.403527235433	12.751936959094
1	61144	165.903506766765	12.580722364478
1	61305	166.403346563675	12.773955525597
1	61829	167.902727368585	13.955677323665
1	62012	168.40232852652	14.37903793809
1	62191	168.902393355222	14.873121787274
1	62356	169.402739908906	12.659434325385
1	62516	169.903277433449	12.614762422462
1	62719	170.402054543825	12.768929341481
2	18537	35.903479221058	0
2	18584	36.003381593563	0
2	18702	36.403380374255	1
2	18737	36.503801286182	1
2	18851	36.902291406873	2
2	18892	37.002950901832	2
2	19027	37.403706527156	3
2	19078	37.504008941036	3
2	19201	37.90278505447	4
2	19238	38.002061948594	4
2	19363	38.402848734068	5
2	19394	38.504595501296	5
2	19516	38.903001953344	6
2	19555	39.003922497074	6
2	19681	39.403231418846	7
2	19730	39.502493461606	7
2	19866	39.902819983602	8
2	19907	40.002878192101	8
2	20052	40.402216243269	9
2	20091	40.503611548368	9
2	20205	40.903281514432	10
2	20246	41.002391539131	10
2	20368	41.402661503617	11
2	20411	41.503938059037	11
2	20533	41.902493212508	12
2	20568	42.003276056475	12
2	20694	42.403826736505	13
2	20731	42.503052161587	13
2	20843	42.902861542634	14
2	20890	43.00352401882	14
2	21025	43.402860438243	15
2	21064	43.505442298795	15
2	21202	43.905640830737	16
2	21245	44.00374135067	16
2	21381	44.403438398595	17
2	21428	44.503422816277	17
2	21554	44.903243209394	18
2	21595	45.002119824917	18
2	21703	45.403320906297	19
2	21740	45.502865949024	19
2	21857	45.903020322159	20
2	21896	46.004335922344	61
2	22010	46.403273156677	46
2	22057	46.503563261928	62
2	22183	46.903651046581	51
2	22227	47.003321910233	65
2	22358	47.402973380833	57
2	22391	47.50258465746	68
2	22503	47.901952577602	62
2	22546	48.004233835333	75
2	22672	48.402315719075	66
2	22711	48.503716676283	81
2	22842	48.903139005526	72
2	22879	49.002864760446	84
2	22991	49.402061472462	79
2	23028	49.50301399673	90
2	23156	49.902728602807	82
2	23192	50.003451927761	95
2	23317	50.403565422327	87
2	23356	50.503590393942	104
2	23466	50.903340542724	92
2	23499	51.001945447572	113
2	23631	51.402208156603	99
2	23672	51.503091625643	116
2	23793	51.902801953693	104
2	23834	52.003019544154	120
2	23963	52.402939702332	110
2	24002	52.503269172718	123
2	24141	52.902094762174	116
2	24182	53.002898177917	129
2	24316	53.40320820246	120
2	24353	53.502258843535	135
2	24493	53.903552278596	127
2	24528	54.003968934053	139
2	24643	54.403433939539	130
2	24682	54.503389673349	149
2	24804	54.902456616989	134
2	24851	55.003402042749	153
2	24957	55.402072683267	141
2	25002	55.502991331763	160
2	25118	55.903754253622	148
2	25153	56.003504525626	161
2	25269	56.40328735497	157
2	25312	56.503319875996	165
2	25451	56.902826125428	160
2	25498	57.003375780012	170
2	25616	57.403321775666	166
2	25663	57.503692907246	175
2	25777	57.904439117933	169
2	25816	58.004042992562	180
2	25958	58.402878872209	176
2	25987	58.502222293356	183
2	26111	58.904064914025	181
2	26146	59.004136854597	192
2	26267	59.403131691337	186
2	26296	59.50236088101	197
2	26428	59.902800310369	190
2	26469	60.002320007654	200
2	26585	60.402323357307	192
2	26618	60.501864117488	207
2	26754	60.903254627546	198
2	26789	61.004563569311	214
2	26911	61.402351729466	201
2	26944	61.50311772085	217
2	27073	61.903409669125	204
2	27106	62.002575473749	224
2	27216	62.402602567001	207
2	27249	62.502293216306	230
2	27385	62.902388063154	210
2	27428	63.003557483079	234
2	27554	63.402815214824	214
2	27587	63.502067438222	237
2	27711	63.902380329396	219
2	27748	64.003076196217	243
2	27864	64.403423367787	226
2	27901	64.503154074419	249
2	28023	64.902379227268	237
2	28060	65.002861510516	253
2	28205	65.402296505668	243
2	28250	65.502815524542	256
2	28358	65.902178049104	248
2	28407	66.002951705139	262
2	28523	66.405522280603	251
2	28552	66.502554550075	267
2	28680	66.902966279096	258
2	28713	67.002318448517	269
2	28841	67.403321190431	261
2	28882	67.502966641751	277
2	29009	67.90252458241	264
2	29046	68.002292252979	284
2	29166	68.402882051543	271
2	29213	68.503927109311	286
2	29323	68.901841423757	276
2	29360	69.002981962624	292
2	29472	69.402134385026	280
2	29503	69.503879644459	298
2	29621	69.903176341971	288
2	29664	70.003537080564	303
2	29782	70.403648649162	293
2	29833	70.503686601661	307
2	29954	70.903317830069	294
2	29987	71.003024264785	309
2	30127	71.402654831519	296
2	30168	71.50239018088	312
2	30288	71.90326215797	304
2	30333	72.002834381687	319
2	30433	72.40260847465	309
2	30464	72.503367209604	324
2	30582	72.903252445554	317
2	30619	73.002249939942	329
2	30760	73.404810167257	321
2	30796	73.503357426471	337
2	30907	73.903065859886	323
2	30952	74.002669558847	344
2	31072	74.403088903719	325
2	31115	74.503721540457	347
2	31213	74.903260903335	328
2	31262	75.002755397721	351
2	31386	75.402571610352	331
2	31427	75.503152151199	356
2	31552	75.903039737234	337
2	31591	76.00493554113	368
2	31722	76.402749615379	343
2	31766	76.503791214565	369
2	31892	76.90425523834	346
2	31927	77.003497885923	372
2	32033	77.403957473302	350
2	32070	77.502965069841	378
2	32186	77.904346151191	358
2	32231	78.002350962029	383
2	32336	78.402195246244	361
2	32365	78.502087551517	389
2	32473	78.903376408805	364
2	32506	79.003061170296	395
2	32636	79.402340433328	371
2	32687	79.503772124575	399
2	32813	79.902713339113	373
2	32856	80.003508099304	402
2	32986	80.403973242746	377
2	33023	80.502312847207	407
2	33139	80.90390386392	380
2	33190	81.003652518598	414
2	33297	81.403683146541	382
2	33334	81.502669564536	418
2	33439	81.904657481956	386
2	33476	82.002117999532	426
2	33605	82.402351174926	390
2	33638	82.503068105002	431
2	33758	82.901969675335	395
2	33795	83.002889807821	432
2	33935	83.403923124043	401
2	33970	83.503462619972	436
2	34105	83.904859255902	405
2	34140	84.003260199432	442
2	34254	84.402787273395	407
2	34287	84.502410769117	449
2	34424	84.904502630393	413
2	34461	85.002133763915	453
2	34582	85.402591841461	418
2	34627	85.502625989781	456
2	34739	85.902435390865	419
2	34776	86.002050643433	462
2	34921	86.403419518487	424
2	34968	86.503652155644	468
2	35074	86.90245094134	428
2	35111	87.003104902805	472
2	35223	87.402798759326	433
2	35264	87.503200620013	478
2	35394	87.903833501004	436
2	35445	88.003502004269	481
2	35587	88.40393205896	444
2	35624	88.502194145213	487
2	35736	88.902380785389	448
2	35779	89.004547256696	488
2	35918	89.403499736336	450
2	35951	89.502591962877	489
2	36083	89.902226027714	454
2	36124	90.002925271158	498
2	36256	90.402516668558	458
2	36296	90.503949717394	505
2	36415	90.902926351959	459
2	36448	91.003055266298	513
2	36572	91.4033782739	464
2	36607	91.504026570107	519
2	36726	91.903171175817	467
2	36763	92.003085259422	521
2	36903	92.402087303374	472
2	36932	92.502653676756	523
2	37048	92.901801246557	478
2	37089	93.002555829334	528
2	37237	93.403685069046	479
2	37271	93.502632902284	532
2	37396	93.904806898074	482
2	37431	94.003331018946	539
2	37553	94.403308589543	488
2	37596	94.503308125523	542
2	37743	94.903469952875	491
2	37782	95.003379862505	544
2	37896	95.402698768403	499
2	37925	95.502451036519	550
2	38065	95.904076079422	505
2	38098	96.003072266687	555
2	38219	96.402044690391	511
2	38259	96.504067879656	558
2	38369	96.903487289417	517
2	38410	97.002694480399	567
2	38539	97.402550588513	521
2	38582	97.503532032206	570
2	38700	97.903355829413	524
2	38745	98.002582283291	574
2	38881	98.402886871665	532
2	38914	98.502029719969	582
2	39046	98.902410516806	534
2	39099	99.003208489118	589
2	39212	99.403187961412	538
2	39246	99.502761130932	591
2	39363	99.903652602663	544
2	39408	100.002698882282	598
2	39536	100.402972204025	553
2	39573	100.503069279256	602
2	39693	100.90298164737	556
2	39736	101.003760652511	608
2	39866	101.402210972402	565
2	39909	101.503272389669	611
2	40043	101.901945637595	571
2	40085	102.002578992676	615
2	40195	102.402609685298	576
2	40240	102.502873437097	618
2	40372	102.903343776979	580
2	40413	103.002187889741	624
2	40533	103.404067870762	586
2	40574	103.502284027261	630
2	40698	103.903706719055	590
2	40739	104.002171730977	639
2	40863	104.403343051706	596
2	40900	104.50264086944	642
2	41033	104.904138842149	601
2	41067	105.002112237748	649
2	41188	105.403219811936	606
2	41219	105.503796925031	655
2	41349	105.902782491394	609
2	41392	106.004230536563	659
2	41510	106.404574755679	615
2	41543	106.502774853561	665
2	41667	106.903011729182	623
2	41700	107.002507101392	670
2	41840	107.402705885861	625
2	41875	107.503739066275	672
2	41996	107.902400333241	630
2	42043	108.003645120515	681
2	42161	108.402187306938	634
2	42198	108.502837449977	687
2	42322	108.902480888008	639
2	42363	109.002993739204	692
2	42479	109.403443868463	642
2	42514	109.503326397729	701
2	42612	109.903266940288	647
2	42653	110.002220600424	704
2	42773	110.402627795743	655
2	42810	110.50225180593	707
2	42941	110.904783970577	659
2	42978	111.003001418748	713
2	43122	111.402795952066	663
2	43155	111.503090021537	719
2	43283	111.903291921389	668
2	43328	112.003190516481	725
2	43436	112.402337882173	674
2	43477	112.502317721497	729
2	43593	112.902587715345	676
2	43636	113.004245839788	733
2	43767	113.403549644698	684
2	43802	113.503306617667	740
2	43942	113.903813745063	692
2	43981	114.00383047092	747
2	44107	114.403083007937	697
2	44144	114.502982185941	755
2	44260	114.903715090522	701
2	44303	115.003687032707	760
2	44413	115.402573756609	705
2	44454	115.503064538257	763
2	44578	115.902826220367	707
2	44623	116.002515496335	764
2	44736	116.402929403583	713
2	44772	116.503704605987	770
2	44891	116.902408887137	718
2	44934	117.003269481745	775
2	45060	117.403104013218	725
2	45093	117.502767343059	779
2	45233	117.904098485116	731
2	45276	118.003371920513	784
2	45398	118.40247740598	733
2	45437	118.503847688095	791
2	45560	118.90251388215	738
2	45601	119.002255569181	793
2	45738	119.404096765833	747
2	45771	119.50258938457	797
2	45888	119.902174449032	748
2	45931	120.003643616768	800
2	46053	120.404790795161	758
2	46088	120.503461539434	801
2	46198	120.902726703022	761
2	46247	121.0024357276	809
2	46383	121.403458635427	766
2	46426	121.503331782076	816
2	46545	121.90342844006	768
2	46590	122.003056977749	822
2	46703	122.403321644681	769
2	46734	122.504596013376	827
2	46849	122.903555135323	772
2	46902	123.002862262886	831
2	47026	123.402605701733	782
2	47061	123.504220776212	833
2	47191	123.903518763207	787
2	47248	124.003195845809	838
2	47381	124.403928056659	791
2	47420	124.503891079856	840
2	47518	124.903237242007	796
2	47559	125.002051225909	848
2	47700	125.402442174377	803
2	47729	125.502670155788	850
2	47866	125.902552262782	814
2	47907	126.003023069521	854
2	48023	126.40247804469	818
2	48058	126.503256809741	860
2	48201	126.903962723598	823
2	48242	127.002365408812	862
2	48366	127.402763502021	827
2	48399	127.502399513565	866
2	48519	127.902320418913	832
2	48558	128.003940660173	868
2	48685	128.40254922289	836
2	48714	128.503043305878	875
2	48847	128.902916663141	842
2	48886	129.004311133408	881
2	49008	129.403033622113	850
2	49047	129.5043661307	884
2	49178	129.903195012001	856
2	49221	130.003752391514	893
2	49359	130.401976308071	859
2	49400	130.502514914337	895
2	49512	130.904518869126	867
2	49553	131.002011885182	898
2	49687	131.402261577495	869
2	49722	131.503932780898	903
2	49848	131.902266299024	876
2	49885	132.002329331579	907
2	50022	132.403291615178	882
2	50061	132.503407297745	910
2	50167	132.903030038998	886
2	50204	133.002508692741	913
2	50332	133.403534022576	895
2	50363	133.503497691976	915
2	50473	133.902359532017	903
2	50522	134.002177215533	920
2	50652	134.402242408878	905
2	50683	134.503835157003	927
2	50818	134.903587839029	914
2	50873	135.00324054483	933
2	51011	135.404462377194	919
2	51054	135.504347426621	936
2	51184	135.902481954362	926
2	51229	136.002565087939	943
2	51365	136.404016806621	932
2	51400	136.504821812257	947
2	51510	136.902934047929	936
2	51557	137.003321887933	951
2	51681	137.402998545242	941
2	51722	137.502488092221	962
2	51843	137.904048616719	948
2	51880	138.002531478316	968
2	51996	138.403273518869	951
2	52025	138.502436499739	973
2	52129	138.902080987919	954
2	52166	139.00258555677	980
2	52274	139.402066169288	957
2	52307	139.502526641408	985
2	52431	139.902622366357	960
2	52472	140.002874298511	989
2	52587	140.402743404457	962
2	52628	140.502744952956	996
2	52768	140.90350757024	968
2	52811	141.003271806282	1004
2	52929	141.403097585228	977
2	52972	141.503438842892	1008
2	53082	141.903700274902	980
2	53129	142.003621235284	1014
2	53243	142.403828706854	986
2	53280	142.502893609118	1020
2	53425	142.901867301571	991
2	53475	143.003058238535	1028
2	53596	143.402711646934	995
2	53635	143.504427662489	1030
2	53761	143.903323544026	999
2	53808	144.003317634692	1035
2	53914	144.403390279198	1003
2	53953	144.503770083025	1039
2	54075	144.903911207731	1006
2	54114	145.006397568123	1044
2	54248	145.403095231665	1011
2	54281	145.502386306975	1053
2	54423	145.901966191142	1017
2	54473	146.002768843905	1061
2	54581	146.403029909402	1021
2	54618	146.502959646593	1068
2	54734	146.904612603319	1029
2	54785	147.003893989684	1075
2	54911	147.402562042875	1035
2	54956	147.502359425012	1077
2	55084	147.903295732882	1040
2	55123	148.003476320878	1082
2	55258	148.403545931472	1044
2	55295	148.502087972838	1083
2	55440	148.903378500877	1051
2	55482	149.002864635722	1085
2	55606	149.403626465238	1058
2	55639	149.50259318478	1086
2	55779	149.902076643391	1066
2	55816	150.003082574102	1089
2	55940	150.402427097974	1067
2	55977	150.502238754627	1097
2	56110	150.903609786634	1071
2	56159	151.002550124065	1101
2	56291	151.401864404661	1073
2	56328	151.502014478615	1109
2	56449	151.903615139782	1076
2	56483	152.002106661354	1114
2	56607	152.403752050879	1079
2	56662	152.505514658653	1117
2	56780	152.904563102189	1084
2	56821	153.003020357149	1123
2	56946	153.403877844013	1089
2	56985	153.503463054955	1134
2	57115	153.902382560714	1094
2	57169	154.002644864735	1140
2	57283	154.402726783651	1098
2	57322	154.503346535636	1146
2	57445	154.903584181187	1103
2	57489	155.002926502064	1148
2	57594	155.403411386521	1107
2	57625	155.503429587103	1150
2	57748	155.902461649863	1112
2	57795	156.003833288489	1158
2	57984	156.503945048402	1166
2	58160	157.003585088127	1168
2	58286	157.402291039317	1115
2	58331	157.502026606038	1172
2	58462	157.903615353193	1125
2	58498	158.005040449773	1177
2	58630	158.402905113019	1127
2	58674	158.502874164732	1182
2	58794	158.903623950312	1134
2	58838	159.002832932492	1189
2	58957	159.402249748651	1138
2	58993	159.50295202961	1199
2	59117	159.902925811939	1144
2	59165	160.003134995622	1205
2	59300	160.404229364526	1152
2	59336	160.503111090996	1212
2	59471	160.903167764561	1157
2	59517	161.003449811317	1218
2	59640	161.402411698626	1163
2	59669	161.502993715581	1226
2	59800	161.903101035571	1168
2	59839	162.002676084249	1231
2	59968	162.404318825519	1171
2	60012	162.503307940947	1237
2	60127	162.902803341133	1177
2	60177	163.003683348558	1242
2	60331	163.403166804532	1181
2	60364	163.502668788641	1245
2	60472	163.902285091524	1187
2	60511	164.003724119795	1251
2	60618	164.402505796971	1194
2	60650	164.503033281098	1260
2	60776	164.903147598193	1196
2	60818	165.003265942148	1263
2	60948	165.403527235433	1204
2	61144	165.903506766765	1211
2	61305	166.403346563675	1215
2	61829	167.902727368585	1219
2	62012	168.40232852652	1220
2	62191	168.902393355222	1221
2	62356	169.402739908906	1248
2	62516	169.903277433449	1249
2	62719	170.402054543825	1253
4	18536	35.903479221058	246
4	18583	36.003381593563	109
4	18701	36.403380374255	15
4	18736	36.503801286182	133
4	18850	36.902291406873	69
4	18891	37.002950901832	81
4	19026	37.403706527156	91
4	19077	37.504008941036	340
4	19200	37.90278505447	10
4	19237	38.002061948594	60
4	19362	38.402848734068	213
4	19393	38.504595501296	411
4	19515	38.903001953344	102
4	19554	39.003922497074	269
4	19680	39.403231418846	24
4	19729	39.502493461606	102
4	19865	39.902819983602	106
4	19906	40.002878192101	90
4	20051	40.402216243269	39
4	20090	40.503611548368	198
4	20204	40.903281514432	28
4	20245	41.002391539131	10
4	20367	41.402661503617	130
4	20410	41.503938059037	154
4	20532	41.902493212508	161
4	20567	42.003276056475	129
4	20693	42.403826736505	456
4	20730	42.503052161587	150
4	20842	42.902861542634	65
4	20889	43.00352401882	64
4	21024	43.402860438243	13
4	21063	43.505442298795	578
4	21201	43.905640830737	694
4	21244	44.00374135067	143
4	21380	44.403438398595	90
4	21427	44.503422816277	45
4	21553	44.903243209394	228
4	21594	45.002119824917	30
4	21702	45.403320906297	132
4	21739	45.502865949024	151
4	21856	45.903020322159	277
4	21895	46.004335922344	435
4	22009	46.403273156677	264
4	22056	46.503563261928	85
4	22182	46.903651046581	377
4	22226	47.003321910233	16
4	22357	47.402973380833	153
4	22390	47.50258465746	134
4	22502	47.901952577602	41
4	22545	48.004233835333	218
4	22671	48.402315719075	91
4	22710	48.503716676283	184
4	22841	48.903139005526	58
4	22878	49.002864760446	204
4	22990	49.402061472462	24
4	23027	49.50301399673	52
4	23155	49.902728602807	39
4	23191	50.003451927761	207
4	23316	50.403565422327	119
4	23355	50.503590393942	174
4	23465	50.903340542724	9
4	23498	51.001945447572	13
4	23630	51.402208156603	9
4	23671	51.503091625643	154
4	23792	51.902801953693	85
4	23833	52.003019544154	161
4	23962	52.402939702332	94
4	24001	52.503269172718	112
4	24140	52.902094762174	30
4	24181	53.002898177917	64
4	24315	53.40320820246	79
4	24352	53.502258843535	45
4	24492	53.903552278596	78
4	24527	54.003968934053	215
4	24642	54.403433939539	153
4	24681	54.503389673349	15
4	24803	54.902456616989	17
4	24850	55.003402042749	101
4	24956	55.402072683267	69
4	25001	55.502991331763	10
4	25117	55.903754253622	393
4	25152	56.003504525626	98
4	25268	56.40328735497	166
4	25311	56.503319875996	62
4	25450	56.902826125428	49
4	25497	57.003375780012	65
4	25615	57.403321775666	103
4	25662	57.503692907246	429
4	25776	57.904439117933	289
4	25815	58.004042992562	287
4	25957	58.402878872209	132
4	25986	58.502222293356	24
4	26110	58.904064914025	466
4	26145	59.004136854597	317
4	26266	59.403131691337	107
4	26295	59.50236088101	127
4	26427	59.902800310369	30
4	26468	60.002320007654	86
4	26584	60.402323357307	13
4	26617	60.501864117488	23
4	26753	60.903254627546	58
4	26788	61.004563569311	360
4	26910	61.402351729466	122
4	26943	61.50311772085	155
4	27072	61.903409669125	290
4	27105	62.002575473749	15
4	27215	62.402602567001	124
4	27248	62.502293216306	11
4	27384	62.902388063154	131
4	27427	63.003557483079	67
4	27553	63.402815214824	73
4	27586	63.502067438222	78
4	27710	63.902380329396	73
4	27747	64.003076196217	49
4	27863	64.403423367787	196
4	27900	64.503154074419	47
4	28022	64.902379227268	148
4	28059	65.002861510516	198
4	28204	65.402296505668	8
4	28249	65.502815524542	81
4	28357	65.902178049104	12
4	28406	66.002951705139	128
4	28522	66.405522280603	624
4	28551	66.502554550075	166
4	28679	66.902966279096	79
4	28712	67.002318448517	74
4	28840	67.403321190431	24
4	28881	67.502966641751	52
4	29008	67.90252458241	85
4	29045	68.002292252979	12
4	29165	68.402882051543	168
4	29212	68.503927109311	191
4	29322	68.901841423757	12
4	29359	69.002981962624	196
4	29471	69.402134385026	32
4	29502	69.503879644459	353
4	29620	69.903176341971	34
4	29663	70.003537080564	302
4	29781	70.403648649162	277
4	29832	70.503686601661	232
4	29953	70.903317830069	288
4	29986	71.003024264785	45
4	30126	71.402654831519	60
4	30167	71.50239018088	30
4	30287	71.90326215797	197
4	30332	72.002834381687	175
4	30432	72.40260847465	28
4	30463	72.503367209604	122
4	30581	72.903252445554	253
4	30618	73.002249939942	76
4	30759	73.404810167257	457
4	30795	73.503357426471	101
4	30906	73.903065859886	135
4	30951	74.002669558847	132
4	31071	74.403088903719	250
4	31114	74.503721540457	103
4	31212	74.903260903335	107
4	31261	75.002755397721	16
4	31385	75.402571610352	41
4	31426	75.503152151199	164
4	31551	75.903039737234	84
4	31590	76.00493554113	406
4	31721	76.402749615379	208
4	31765	76.503791214565	110
4	31891	76.90425523834	236
4	31926	77.003497885923	203
4	32032	77.403957473302	283
4	32069	77.502965069841	149
4	32185	77.904346151191	276
4	32230	78.002350962029	71
4	32335	78.402195246244	12
4	32364	78.502087551517	30
4	32472	78.903376408805	17
4	32505	79.003061170296	193
4	32635	79.402340433328	17
4	32686	79.503772124575	352
4	32812	79.902713339113	48
4	32855	80.003508099304	78
4	32985	80.403973242746	213
4	33022	80.502312847207	10
4	33138	80.90390386392	212
4	33189	81.003652518598	203
4	33296	81.403683146541	232
4	33333	81.502669564536	43
4	33438	81.904657481956	372
4	33475	82.002117999532	43
4	33604	82.402351174926	100
4	33637	82.503068105002	96
4	33757	82.901969675335	22
4	33794	83.002889807821	64
4	33934	83.403923124043	185
4	33969	83.503462619972	82
4	34104	83.904859255902	405
4	34139	84.003260199432	332
4	34253	84.402787273395	56
4	34286	84.502410769117	109
4	34423	84.904502630393	529
4	34460	85.002133763915	16
4	34581	85.402591841461	195
4	34626	85.502625989781	40
4	34738	85.902435390865	72
4	34775	86.002050643433	54
4	34920	86.403419518487	229
4	34967	86.503652155644	286
4	35073	86.90245094134	96
4	35110	87.003104902805	80
4	35222	87.402798759326	67
4	35263	87.503200620013	29
4	35393	87.903833501004	410
4	35444	88.003502004269	319
4	35586	88.40393205896	161
4	35623	88.502194145213	16
4	35735	88.902380785389	36
4	35778	89.004547256696	377
4	35917	89.403499736336	151
4	35950	89.502591962877	29
4	36082	89.902226027714	14
4	36123	90.002925271158	56
4	36255	90.402516668558	185
4	36295	90.503949717394	458
4	36414	90.902926351959	284
4	36447	91.003055266298	54
4	36571	91.4033782739	103
4	36606	91.504026570107	347
4	36725	91.903171175817	150
4	36762	92.003085259422	13
4	36902	92.402087303374	65
4	36931	92.502653676756	36
4	37047	92.901801246557	12
4	37088	93.002555829334	159
4	37236	93.403685069046	93
4	37270	93.502632902284	140
4	37395	93.904806898074	504
4	37430	94.003331018946	148
4	37552	94.403308589543	94
4	37595	94.503308125523	196
4	37742	94.903469952875	262
4	37781	95.003379862505	228
4	37895	95.402698768403	81
4	37924	95.502451036519	72
4	38064	95.904076079422	182
4	38097	96.003072266687	125
4	38218	96.402044690391	61
4	38258	96.504067879656	364
4	38368	96.903487289417	232
4	38409	97.002694480399	43
4	38538	97.402550588513	176
4	38581	97.503532032206	92
4	38699	97.903355829413	138
4	38744	98.002582283291	121
4	38880	98.402886871665	113
4	38913	98.502029719969	22
4	39045	98.902410516806	73
4	39098	99.003208489118	110
4	39211	99.403187961412	13
4	39245	99.502761130932	79
4	39362	99.903652602663	174
4	39407	100.002698882282	81
4	39535	100.402972204025	39
4	39572	100.503069279256	115
4	39692	100.90298164737	92
4	39735	101.003760652511	167
4	39865	101.402210972402	86
4	39908	101.503272389669	309
4	40042	101.901945637595	33
4	40084	102.002578992676	39
4	40194	102.402609685298	66
4	40239	102.502873437097	37
4	40371	102.903343776979	45
4	40412	103.002187889741	71
4	40532	103.404067870762	414
4	40573	103.502284027261	50
4	40697	103.903706719055	253
4	40738	104.002171730977	40
4	40862	104.403343051706	161
4	40899	104.50264086944	24
4	41032	104.904138842149	382
4	41066	105.002112237748	86
4	41187	105.403219811936	13
4	41218	105.503796925031	148
4	41348	105.902782491394	55
4	41391	106.004230536563	285
4	41509	106.404574755679	336
4	41542	106.502774853561	168
4	41666	106.903011729182	244
4	41699	107.002507101392	84
4	41839	107.402705885861	141
4	41874	107.503739066275	111
4	41995	107.902400333241	122
4	42042	108.003645120515	146
4	42160	108.402187306938	29
4	42197	108.502837449977	30
4	42321	108.902480888008	139
4	42362	109.002993739204	69
4	42478	109.403443868463	403
4	42513	109.503326397729	43
4	42611	109.903266940288	11
4	42652	110.002220600424	88
4	42772	110.402627795743	148
4	42809	110.50225180593	101
4	42940	110.904783970577	479
4	42977	111.003001418748	264
4	43121	111.402795952066	30
4	43154	111.503090021537	79
4	43282	111.903291921389	18
4	43327	112.003190516481	11
4	43435	112.402337882173	61
4	43476	112.502317721497	55
4	43592	112.902587715345	36
4	43635	113.004245839788	457
4	43766	113.403549644698	49
4	43801	113.503306617667	18
4	43941	113.903813745063	225
4	43980	114.00383047092	136
4	44106	114.403083007937	32
4	44143	114.502982185941	119
4	44259	114.903715090522	172
4	44302	115.003687032707	85
4	44412	115.402573756609	120
4	44453	115.503064538257	139
4	44577	115.902826220367	138
4	44622	116.002515496335	17
4	44735	116.402929403583	47
4	44771	116.503704605987	104
4	44890	116.902408887137	120
4	44933	117.003269481745	329
4	45059	117.403104013218	65
4	45092	117.502767343059	52
4	45232	117.904098485116	506
4	45275	118.003371920513	42
4	45397	118.40247740598	119
4	45436	118.503847688095	142
4	45559	118.90251388215	105
4	45600	119.002255569181	96
4	45737	119.404096765833	407
4	45770	119.50258938457	17
4	45887	119.902174449032	98
4	45930	120.003643616768	77
4	46052	120.404790795161	629
4	46087	120.503461539434	48
4	46197	120.902726703022	58
4	46246	121.0024357276	23
4	46382	121.403458635427	40
4	46425	121.503331782076	28
4	46544	121.90342844006	117
4	46589	122.003056977749	46
4	46702	122.403321644681	42
4	46733	122.504596013376	363
4	46848	122.903555135323	185
4	46901	123.002862262886	59
4	47025	123.402605701733	61
4	47060	123.504220776212	266
4	47190	123.903518763207	42
4	47247	124.003195845809	99
4	47380	124.403928056659	228
4	47419	124.503891079856	293
4	47517	124.903237242007	92
4	47558	125.002051225909	27
4	47699	125.402442174377	30
4	47728	125.502670155788	50
4	47865	125.902552262782	24
4	47906	126.003023069521	35
4	48022	126.40247804469	105
4	48057	126.503256809741	173
4	48200	126.903962723598	214
4	48241	127.002365408812	118
4	48365	127.402763502021	141
4	48398	127.502399513565	72
4	48518	127.902320418913	72
4	48557	128.003940660173	308
4	48684	128.40254922289	103
4	48713	128.503043305878	156
4	48846	128.902916663141	114
4	48885	129.004311133408	280
4	49007	129.403033622113	43
4	49046	129.5043661307	554
4	49177	129.903195012001	23
4	49220	130.003752391514	284
4	49358	130.401976308071	10
4	49399	130.502514914337	152
4	49511	130.904518869126	401
4	49552	131.002011885182	23
4	49686	131.402261577495	11
4	49721	131.503932780898	244
4	49847	131.902266299024	36
4	49884	132.002329331579	123
4	50021	132.403291615178	151
4	50060	132.503407297745	33
4	50166	132.903030038998	154
4	50203	133.002508692741	29
4	50331	133.403534022576	99
4	50362	133.503497691976	258
4	50472	133.902359532017	33
4	50521	134.002177215533	99
4	50651	134.402242408878	23
4	50682	134.503835157003	256
4	50817	134.903587839029	87
4	50872	135.00324054483	47
4	51010	135.404462377194	279
4	51053	135.504347426621	563
4	51183	135.902481954362	57
4	51228	136.002565087939	55
4	51364	136.404016806621	438
4	51399	136.504821812257	455
4	51509	136.902934047929	66
4	51556	137.003321887933	97
4	51680	137.402998545242	14
4	51721	137.502488092221	73
4	51842	137.904048616719	391
4	51879	138.002531478316	81
4	51995	138.403273518869	49
4	52024	138.502436499739	90
4	52128	138.902080987919	25
4	52165	139.00258555677	28
4	52273	139.402066169288	59
4	52306	139.502526641408	190
4	52430	139.902622366357	47
4	52471	140.002874298511	266
4	52586	140.402743404457	114
4	52627	140.502744952956	214
4	52767	140.90350757024	220
4	52810	141.003271806282	9
4	52928	141.403097585228	25
4	52971	141.503438842892	224
4	53081	141.903700274902	225
4	53128	142.003621235284	467
4	53242	142.403828706854	371
4	53279	142.502893609118	156
4	53424	142.901867301571	23
4	53474	143.003058238535	76
4	53595	143.402711646934	161
4	53634	143.504427662489	443
4	53760	143.903323544026	273
4	53807	144.003317634692	240
4	53913	144.403390279198	74
4	53952	144.503770083025	210
4	54074	144.903911207731	203
4	54113	145.006397568123	794
4	54247	145.403095231665	261
4	54280	145.502386306975	61
4	54422	145.901966191142	28
4	54472	146.002768843905	117
4	54580	146.403029909402	14
4	54617	146.502959646593	189
4	54733	146.904612603319	431
4	54784	147.003893989684	345
4	54910	147.402562042875	55
4	54955	147.502359425012	125
4	55083	147.903295732882	24
4	55122	148.003476320878	176
4	55257	148.403545931472	114
4	55294	148.502087972838	73
4	55439	148.903378500877	211
4	55481	149.002864635722	9
4	55605	149.403626465238	174
4	55638	149.50259318478	184
4	55778	149.902076643391	31
4	55815	150.003082574102	186
4	55939	150.402427097974	19
4	55976	150.502238754627	106
4	56109	150.903609786634	362
4	56158	151.002550124065	85
4	56290	151.401864404661	19
4	56327	151.502014478615	63
4	56448	151.903615139782	376
4	56482	152.002106661354	84
4	56606	152.403752050879	161
4	56661	152.505514658653	574
4	56779	152.904563102189	416
4	56820	153.003020357149	60
4	56945	153.403877844013	158
4	56984	153.503463054955	55
4	57114	153.902382560714	71
4	57168	154.002644864735	142
4	57282	154.402726783651	77
4	57321	154.503346535636	107
4	57444	154.903584181187	193
4	57488	155.002926502064	81
4	57593	155.403411386521	150
4	57624	155.503429587103	64
4	57747	155.902461649863	88
4	57794	156.003833288489	261
4	57983	156.503945048402	182
4	58159	157.003585088127	191
4	58285	157.402291039317	49
4	58330	157.502026606038	39
4	58461	157.903615353193	160
4	58497	158.005040449773	462
4	58629	158.402905113019	50
4	58673	158.502874164732	239
4	58793	158.903623950312	97
4	58837	159.002832932492	65
4	58956	159.402249748651	88
4	58992	159.50295202961	107
4	59116	159.902925811939	187
4	59164	160.003134995622	260
4	59299	160.404229364526	371
4	59335	160.503111090996	128
4	59470	160.903167764561	164
4	59516	161.003449811317	101
4	59639	161.402411698626	41
4	59668	161.502993715581	174
4	59799	161.903101035571	21
4	59838	162.002676084249	30
4	59967	162.404318825519	459
4	60011	162.503307940947	20
4	60126	162.902803341133	75
4	60176	163.003683348558	115
4	60330	163.403166804532	97
4	60363	163.502668788641	44
4	60471	163.902285091524	13
4	60510	164.003724119795	131
4	60617	164.402505796971	35
4	60649	164.503033281098	160
4	60775	164.903147598193	133
4	60817	165.003265942148	10
4	60947	165.403527235433	100
4	61143	165.903506766765	166
4	61304	166.403346563675	215
4	61828	167.902727368585	69
4	62011	168.40232852652	33
4	62190	168.902393355222	86
4	62355	169.402739908906	14
4	62515	169.903277433449	60
4	62718	170.402054543825	76
5	18536	35.903479221058	1
5	18583	36.003381593563	2
5	18701	36.403380374255	3
5	18736	36.503801286182	4
5	18850	36.902291406873	5
5	18891	37.002950901832	6
5	19026	37.403706527156	7
5	19077	37.504008941036	8
5	19200	37.90278505447	9
5	19237	38.002061948594	10
5	19362	38.402848734068	11
5	19393	38.504595501296	12
5	19515	38.903001953344	13
5	19554	39.003922497074	14
5	19680	39.403231418846	15
5	19729	39.502493461606	16
5	19865	39.902819983602	17
5	19906	40.002878192101	18
5	20051	40.402216243269	19
5	20090	40.503611548368	20
5	20204	40.903281514432	21
5	20245	41.002391539131	22
5	20367	41.402661503617	23
5	20410	41.503938059037	24
5	20532	41.902493212508	25
5	20567	42.003276056475	26
5	20693	42.403826736505	27
5	20730	42.503052161587	28
5	20842	42.902861542634	29
5	20889	43.00352401882	30
5	21024	43.402860438243	31
5	21063	43.505442298795	32
5	21201	43.905640830737	33
5	21244	44.00374135067	34
5	21380	44.403438398595	35
5	21427	44.503422816277	36
5	21553	44.903243209394	37
5	21594	45.002119824917	38
5	21702	45.403320906297	39
5	21739	45.502865949024	40
5	21856	45.903020322159	41
5	21895	46.004335922344	42
5	22009	46.403273156677	43
5	22056	46.503563261928	44
5	22182	46.903651046581	45
5	22226	47.003321910233	46
5	22357	47.402973380833	47
5	22390	47.50258465746	48
5	22502	47.901952577602	49
5	22545	48.004233835333	50
5	22671	48.402315719075	51
5	22710	48.503716676283	52
5	22841	48.903139005526	53
5	22878	49.002864760446	54
5	22990	49.402061472462	55
5	23027	49.50301399673	56
5	23155	49.902728602807	57
5	23191	50.003451927761	58
5	23316	50.403565422327	59
5	23355	50.503590393942	60
5	23465	50.903340542724	61
5	23498	51.001945447572	62
5	23630	51.402208156603	63
5	23671	51.503091625643	64
5	23792	51.902801953693	65
5	23833	52.003019544154	66
5	23962	52.402939702332	67
5	24001	52.503269172718	68
5	24140	52.902094762174	69
5	24181	53.002898177917	70
5	24315	53.40320820246	71
5	24352	53.502258843535	72
5	24492	53.903552278596	73
5	24527	54.003968934053	74
5	24642	54.403433939539	75
5	24681	54.503389673349	76
5	24803	54.902456616989	77
5	24850	55.003402042749	78
5	24956	55.402072683267	79
5	25001	55.502991331763	80
5	25117	55.903754253622	81
5	25152	56.003504525626	82
5	25268	56.40328735497	83
5	25311	56.503319875996	84
5	25450	56.902826125428	85
5	25497	57.003375780012	86
5	25615	57.403321775666	87
5	25662	57.503692907246	88
5	25776	57.904439117933	89
5	25815	58.004042992562	90
5	25957	58.402878872209	91
5	25986	58.502222293356	92
5	26110	58.904064914025	93
5	26145	59.004136854597	94
5	26266	59.403131691337	95
5	26295	59.50236088101	96
5	26427	59.902800310369	97
5	26468	60.002320007654	98
5	26584	60.402323357307	99
5	26617	60.501864117488	100
5	26753	60.903254627546	101
5	26788	61.004563569311	102
5	26910	61.402351729466	103
5	26943	61.50311772085	104
5	27072	61.903409669125	105
5	27105	62.002575473749	106
5	27215	62.402602567001	107
5	27248	62.502293216306	108
5	27384	62.902388063154	109
5	27427	63.003557483079	110
5	27553	63.402815214824	111
5	27586	63.502067438222	112
5	27710	63.902380329396	113
5	27747	64.003076196217	114
5	27863	64.403423367787	115
5	27900	64.503154074419	116
5	28022	64.902379227268	117
5	28059	65.002861510516	118
5	28204	65.402296505668	119
5	28249	65.502815524542	120
5	28357	65.902178049104	121
5	28406	66.002951705139	122
5	28522	66.405522280603	123
5	28551	66.502554550075	124
5	28679	66.902966279096	125
5	28712	67.002318448517	126
5	28840	67.403321190431	127
5	28881	67.502966641751	128
5	29008	67.90252458241	129
5	29045	68.002292252979	130
5	29165	68.402882051543	131
5	29212	68.503927109311	132
5	29322	68.901841423757	133
5	29359	69.002981962624	134
5	29471	69.402134385026	135
5	29502	69.503879644459	136
5	29620	69.903176341971	137
5	29663	70.003537080564	138
5	29781	70.403648649162	139
5	29832	70.503686601661	140
5	29953	70.903317830069	141
5	29986	71.003024264785	142
5	30126	71.402654831519	143
5	30167	71.50239018088	144
5	30287	71.90326215797	145
5	30332	72.002834381687	146
5	30432	72.40260847465	147
5	30463	72.503367209604	148
5	30581	72.903252445554	149
5	30618	73.002249939942	150
5	30759	73.404810167257	151
5	30795	73.503357426471	152
5	30906	73.903065859886	153
5	30951	74.002669558847	154
5	31071	74.403088903719	155
[...]
65	43508	112.60267357367	0
65	43657	113.100558380149	1
65	43659	113.100558380149	2
65	43663	113.100615880149	1
65	43669	113.102172963482	2
65	43673	113.102435963482	1
65	43673	113.102435963482	0
65	43815	113.60101605944	1
65	43817	113.60101605944	2
65	43821	113.60107355944	1
65	43827	113.602630642773	2
65	43833	113.603453642773	1
65	43833	113.603453642773	0
65	43998	114.100316582456	1
65	44000	114.100316582456	2
65	44004	114.100374082456	1
65	44010	114.101931165789	2
65	44014	114.102546165789	1
65	44014	114.102546165789	0
65	44163	114.600466437485	1
65	44165	114.600466437485	2
65	44169	114.600523937485	1
65	44175	114.602081020818	2
65	44179	114.602768020818	1
65	44179	114.602768020818	0
65	44316	115.101135015382	1
65	44318	115.101135015382	2
65	44322	115.101192515382	1
65	44328	115.102749598715	2
65	44332	115.103072598715	1
65	44332	115.103072598715	0
65	44473	115.600315588173	1
65	44475	115.600315588173	2
65	44479	115.600373088173	1
65	44485	115.601930171506	2
65	44489	115.602545171506	1
65	44489	115.602545171506	0
65	44638	116.10116102955	1
65	44640	116.10116102955	2
65	44644	116.10121852955	1
65	44651	116.102775612883	2
65	44655	116.103170612883	1
65	44655	116.103170612883	0
65	44789	116.600847175947	1
65	44791	116.600847175947	2
65	44795	116.600904675947	1
65	44801	116.60246175928	2
65	44807	116.60462075928	1
65	44807	116.60462075928	0
65	44951	117.100394766648	1
65	44953	117.100394766648	2
65	44957	117.100452266648	1
65	44963	117.102009349981	2
65	44967	117.102620349981	1
65	44967	117.102620349981	0
65	45112	117.600569319348	1
65	45114	117.600569319348	2
65	45118	117.600626819348	1
65	45124	117.602183902681	2
65	45128	117.602738902681	1
65	45128	117.602738902681	0
65	45293	118.100623162201	1
65	45295	118.100623162201	2
65	45299	118.100680662201	1
65	45305	118.102237745534	2
65	45311	118.104000745534	1
65	45311	118.104000745534	0
65	45446	118.600258249451	1
65	45448	118.600258249451	2
65	45452	118.600315749451	1
65	45458	118.601872832784	2
65	45462	118.602399832784	1
65	45462	118.602399832784	0
65	45624	119.101038468228	1
65	45626	119.101038468228	2
65	45630	119.101095968228	1
65	45636	119.102653051561	2
65	45646	119.105304051561	1
65	45646	119.105304051561	0
65	45790	119.600108744654	1
65	45792	119.600108744654	2
65	45796	119.600166244654	1
65	45802	119.601723327987	2
65	45806	119.602090327987	1
65	45806	119.602090327987	0
65	45944	120.100889210919	1
65	45946	120.100889210919	2
65	45950	120.100946710919	1
65	45956	120.102503794252	2
65	45960	120.102798794252	1
65	45960	120.102798794252	0
65	46105	120.600468238438	1
65	46107	120.600468238438	2
65	46111	120.600525738438	1
65	46117	120.602082821771	2
65	46121	120.602685821771	1
65	46121	120.602685821771	0
65	46266	121.100740698497	1
65	46268	121.100740698497	2
65	46272	121.100798198497	1
65	46278	121.10235528183	2
65	46282	121.10265828183	1
65	46282	121.10265828183	0
65	46435	121.60085847195	1
65	46437	121.60085847195	2
65	46441	121.60091597195	1
65	46448	121.602473055283	2
65	46454	121.603348055283	1
65	46454	121.603348055283	0
65	46605	122.100368617376	1
65	46607	122.100368617376	2
65	46611	122.100426117376	1
65	46617	122.101983200709	2
65	46621	122.102362200709	1
65	46621	122.102362200709	0
65	46751	122.601360468019	1
65	46753	122.601360468019	2
65	46757	122.601417968019	1
65	46763	122.602975051352	2
65	46769	122.603278051352	1
65	46769	122.603278051352	0
65	46917	123.10038275731	1
65	46919	123.10038275731	2
65	46923	123.10044025731	1
65	46929	123.101997340643	2
65	46933	123.103044340643	1
65	46933	123.103044340643	0
65	47078	123.601139412186	1
65	47080	123.601139412186	2
65	47084	123.601196912186	1
65	47090	123.602753995519	2
65	47096	123.603256995519	1
65	47096	123.603256995519	0
65	47271	124.10089512969	1
65	47273	124.10089512969	2
65	47277	124.10095262969	1
65	47283	124.102509713023	2
65	47288	124.102764713023	1
65	47288	124.102764713023	0
65	47429	124.600973182476	1
65	47431	124.600973182476	2
65	47435	124.601030682476	1
65	47441	124.602587765809	2
65	47445	124.602818765809	1
65	47445	124.602818765809	0
65	47598	125.100120500249	1
65	47600	125.100120500249	2
65	47604	125.100178000249	1
65	47610	125.101735083582	2
65	47614	125.102290083582	1
65	47614	125.102290083582	0
65	47752	125.600832076426	1
65	47754	125.600832076426	2
65	47758	125.600889576426	1
65	47764	125.602446659759	2
65	47774	125.603437659759	1
65	47774	125.603437659759	0
65	47922	126.101239358951	1
65	47924	126.101239358951	2
65	47928	126.101296858951	1
65	47934	126.102853942284	2
65	47940	126.103552942284	1
65	47940	126.103552942284	0
65	48071	126.600951622425	1
65	48073	126.600951622425	2
65	48077	126.601009122425	1
65	48083	126.602566205758	2
65	48087	126.602989205758	1
65	48087	126.602989205758	0
65	48261	127.100370131829	1
65	48263	127.100370131829	2
65	48267	127.100427631829	1
65	48273	127.101984715162	2
65	48277	127.102531715162	1
65	48277	127.102531715162	0
65	48410	127.600780205553	1
65	48412	127.600780205553	2
65	48416	127.600837705553	1
65	48422	127.602394788886	2
65	48426	127.602985788886	1
65	48426	127.602985788886	0
65	48571	128.100764949606	1
65	48573	128.100764949606	2
65	48577	128.100822449606	1
65	48583	128.102379532939	2
65	48587	128.102686532939	1
65	48587	128.102686532939	0
65	48733	128.600749494813	1
65	48735	128.600749494813	2
65	48739	128.600806994813	1
65	48745	128.602364078146	2
65	48749	128.602591078146	1
65	48749	128.602591078146	0
65	48899	129.100857080028	1
65	48901	129.100857080028	2
65	48905	129.100914580028	1
65	48911	129.102471663361	2
65	48915	129.102646663361	1
65	48915	129.102646663361	0
65	49080	129.600667446056	1
65	49082	129.600667446056	2
65	49086	129.600724946056	1
65	49092	129.602282029389	2
65	49099	129.604021029389	1
65	49099	129.604021029389	0
65	49238	130.10114780619	1
65	49240	130.10114780619	2
65	49244	130.10120530619	1
65	49250	130.102762389523	2
65	49254	130.102941389523	1
65	49254	130.102941389523	0
65	49411	130.600365778341	1
65	49413	130.600365778341	2
65	49417	130.600423278341	1
65	49423	130.601980361674	2
65	49427	130.602259361674	1
65	49427	130.602259361674	0
65	49580	131.100427625737	1
65	49582	131.100427625737	2
65	49586	131.100485125737	1
65	49592	131.10204220907	2
65	49596	131.10278120907	1
65	49596	131.10278120907	0
65	49735	131.600646856883	1
65	49737	131.600646856883	2
65	49741	131.600704356883	1
65	49747	131.602261440216	2
65	49751	131.603012440216	1
65	49751	131.603012440216	0
65	49904	132.101606136116	1
65	49906	132.101606136116	2
65	49910	132.101663636116	1
65	49917	132.103220719449	2
65	49923	132.103751719449	1
65	49923	132.103751719449	0
65	50070	132.600875931154	1
65	50072	132.600875931154	2
65	50076	132.600933431154	1
65	50082	132.602490514487	2
65	50086	132.602757514487	1
65	50086	132.602757514487	0
65	50215	133.100194259803	1
65	50217	133.100194259803	2
65	50221	133.100251759803	1
65	50227	133.101808843136	2
65	50231	133.102035843136	1
65	50231	133.102035843136	0
65	50376	133.600636063457	1
65	50378	133.600636063457	2
65	50382	133.600693563457	1
65	50388	133.60225064679	2
65	50392	133.60273364679	1
65	50392	133.60273364679	0
65	50546	134.101156762345	1
65	50548	134.101156762345	2
65	50552	134.101214262345	1
65	50558	134.102771345678	2
65	50564	134.104022345678	1
65	50564	134.104022345678	0
65	50704	134.600224731608	1
65	50706	134.600224731608	2
65	50710	134.600282231608	1
65	50716	134.601839314941	2
65	50720	134.602202314941	1
65	50720	134.602202314941	0
65	50898	135.101400789487	1
65	50900	135.101400789487	2
65	50904	135.101458289487	1
65	50910	135.10301537282	2
65	50920	135.10490237282	1
65	50920	135.10490237282	0
65	51075	135.601110252655	1
65	51077	135.601110252655	2
65	51081	135.601167752655	1
65	51087	135.602724835988	2
65	51091	135.603123835988	1
65	51091	135.603123835988	0
65	51244	136.101004949532	1
65	51246	136.101004949532	2
65	51250	136.101062449532	1
65	51256	136.102619532865	2
65	51260	136.102810532865	1
65	51260	136.102810532865	0
65	51409	136.601195047048	1
65	51411	136.601195047048	2
65	51415	136.601252547048	1
65	51421	136.602809630381	2
65	51427	136.604508630381	1
65	51427	136.604508630381	0
65	51575	137.100652159553	1
65	51577	137.100652159553	2
65	51581	137.100709659553	1
65	51587	137.102266742886	2
65	51591	137.102597742886	1
65	51591	137.102597742886	0
65	51741	137.601270835914	1
65	51743	137.601270835914	2
65	51747	137.601328335914	1
65	51754	137.602885419247	2
65	51758	137.603120419247	1
65	51758	137.603120419247	0
65	51907	138.101579417348	1
65	51909	138.101579417348	2
65	51913	138.101636917348	1
65	51919	138.103194000681	2
65	51925	138.103565000681	1
65	51925	138.103565000681	0
65	52036	138.601447023462	1
65	52038	138.601447023462	2
65	52042	138.601504523462	1
65	52048	138.603061606795	2
65	52054	138.603384606795	1
65	52054	138.603384606795	0
65	52181	139.101274994534	1
65	52183	139.101274994534	2
65	52187	139.101332494534	1
65	52193	139.102889577867	2
65	52199	139.103480577867	1
65	52199	139.103480577867	0
65	52330	139.601445014645	1
65	52332	139.601445014645	2
65	52336	139.601502514645	1
65	52342	139.603059597978	2
65	52348	139.604074597978	1
65	52348	139.604074597978	0
65	52493	140.100945784529	1
65	52495	140.100945784529	2
65	52499	140.101003284529	1
65	52505	140.102560367862	2
65	52510	140.102795367862	1
65	52510	140.102795367862	0
65	52647	140.600636323752	1
65	52649	140.600636323752	2
65	52653	140.600693823752	1
65	52659	140.602250907085	2
65	52665	140.603285907085	1
65	52665	140.603285907085	0
65	52824	141.100176560514	1
65	52826	141.100176560514	2
65	52830	141.100234060514	1
65	52836	141.101791143847	2
65	52842	141.103410143847	1
65	52842	141.103410143847	0
65	52985	141.600189768178	1
65	52987	141.600189768178	2
65	52991	141.600247268178	1
65	52997	141.601804351511	2
65	53001	141.602031351511	1
65	53001	141.602031351511	0
65	53142	142.100521068254	1
65	53144	142.100521068254	2
65	53148	142.100578568254	1
65	53154	142.102135651587	2
65	53158	142.102914651587	1
65	53158	142.102914651587	0
65	53311	142.600761262608	1
65	53313	142.600761262608	2
65	53317	142.600818762608	1
65	53323	142.602375845941	2
65	53329	142.603602845941	1
65	53329	142.603602845941	0
65	53495	143.100236095441	1
65	53497	143.100236095441	2
65	53501	143.100293595441	1
65	53507	143.101850678774	2
65	53511	143.102281678774	1
65	53511	143.102281678774	0
65	53656	143.600810773771	1
65	53658	143.600810773771	2
65	53662	143.600868273771	1
65	53668	143.602425357104	2
65	53674	143.603372357104	1
65	53674	143.603372357104	0
65	53821	144.100416501572	1
65	53823	144.100416501572	2
65	53827	144.100474001572	1
65	53833	144.102031084905	2
65	53837	144.103210084905	1
65	53837	144.103210084905	0
65	53962	144.600159926735	1
65	53964	144.600159926735	2
65	53968	144.600217426735	1
65	53974	144.601774510068	2
65	53978	144.602021510068	1
65	53978	144.602021510068	0
65	54139	145.100402772507	1
65	54141	145.100402772507	2
65	54145	145.100460272507	1
65	54151	145.10201735584	2
65	54155	145.10220835584	1
65	54155	145.10220835584	0
65	54300	145.600777556027	1
65	54302	145.600777556027	2
65	54306	145.600835056027	1
65	54312	145.60239213936	2
65	54319	145.60425113936	1
65	54319	145.60425113936	0
65	54484	146.101170414152	1
65	54486	146.101170414152	2
65	54490	146.101227914152	1
65	54496	146.102784997485	2
65	54500	146.103139997485	1
65	54500	146.103139997485	0
65	54633	146.600501276389	1
65	54635	146.600501276389	2
65	54639	146.600558776389	1
65	54645	146.602115859722	2
65	54649	146.602346859722	1
65	54649	146.602346859722	0
65	54798	147.100896132138	1
65	54800	147.100896132138	2
65	54804	147.100953632138	1
65	54810	147.102510715471	2
65	54814	147.103101715471	1
65	54814	147.103101715471	0
65	54975	147.600527403761	1
65	54977	147.600527403761	2
65	54981	147.600584903761	1
65	54987	147.602141987094	2
65	54991	147.603120987094	1
65	54991	147.603120987094	0
65	55140	148.101213605096	1
65	55142	148.101213605096	2
65	55146	148.101271105096	1
65	55153	148.102828188429	2
65	55159	148.103659188429	1
65	55159	148.103659188429	0
65	55310	148.601593231891	1
65	55312	148.601593231891	2
65	55316	148.601650731891	1
65	55322	148.603207815224	2
65	55328	148.603466815224	1
65	55328	148.603466815224	0
65	55497	149.100485264096	1
65	55499	149.100485264096	2
65	55503	149.100542764096	1
65	55509	149.102099847429	2
65	55513	149.102310847429	1
65	55513	149.102310847429	0
65	55658	149.600425286781	1
65	55660	149.600425286781	2
65	55664	149.600482786781	1
65	55670	149.602039870114	2
65	55676	149.603622870114	1
65	55676	149.603622870114	0
65	55831	150.101588662955	1
65	55833	150.101588662955	2
65	55837	150.101646162955	1
65	55843	150.103203246288	2
65	55849	150.103414246288	1
65	55849	150.103414246288	0
65	55988	150.600859242568	1
65	55990	150.600859242568	2
65	55994	150.600916742568	1
65	56000	150.602473825901	2
65	56011	150.604112825901	1
65	56011	150.604112825901	0
65	56174	151.101251585026	1
65	56176	151.101251585026	2
65	56180	151.101309085026	1
65	56186	151.102866168359	2
65	56192	151.103645168359	1
65	56192	151.103645168359	0
65	56343	151.600069975792	1
65	56345	151.600069975792	2
65	56349	151.600127475792	1
65	56355	151.601684559125	2
65	56361	151.603483559125	1
65	56361	151.603483559125	0
65	56502	152.100371269853	1
65	56504	152.100371269853	2
65	56508	152.100428769853	1
65	56514	152.101985853186	2
65	56518	152.102752853186	1
65	56518	152.102752853186	0
65	56671	152.600785505641	1
65	56673	152.600785505641	2
65	56677	152.600843005641	1
65	56683	152.602400088974	2
65	56687	152.602819088974	1
65	56687	152.602819088974	0
65	56840	153.101457648887	1
65	56842	153.101457648887	2
65	56846	153.101515148887	1
65	56852	153.10307223222	2
65	56859	153.10351523222	1
65	56859	153.10351523222	0
65	56998	153.600596806714	1
65	57000	153.600596806714	2
65	57004	153.600654306714	1
65	57010	153.602211390047	2
65	57014	153.603118390047	1
65	57014	153.603118390047	0
65	57193	154.100754051645	1
65	57195	154.100754051645	2
65	57199	154.100811551645	1
65	57205	154.102368634978	2
65	57209	154.103103634978	1
65	57209	154.103103634978	0
65	57335	154.601591272021	1
65	57337	154.601591272021	2
65	57341	154.601648772021	1
65	57347	154.603205855354	2
65	57353	154.603692855354	1
65	57353	154.603692855354	0
65	57503	155.101181046471	1
65	57505	155.101181046471	2
65	57509	155.101238546471	1
65	57515	155.102795629804	2
65	57519	155.103126629804	1
65	57519	155.103126629804	0
65	57643	155.601042672004	1
65	57645	155.601042672004	2
65	57649	155.601100172004	1
65	57655	155.602657255337	2
65	57662	155.603432255337	1
65	57662	155.603432255337	0
65	57813	156.100269970678	1
65	57815	156.100269970678	2
65	57819	156.100327470678	1
65	57825	156.101884554011	2
65	57829	156.102219554011	1
65	57829	156.102219554011	0
65	57996	156.600043619439	1
65	57998	156.600043619439	2
65	58002	156.600101119439	1
65	58011	156.601658202772	2
65	58015	156.602181202772	1
65	58015	156.602181202772	0
65	58172	157.100536879623	1
65	58174	157.100536879623	2
65	58178	157.100594379623	1
65	58184	157.102151462956	2
65	58188	157.102638462956	1
65	58188	157.102638462956	0
65	58350	157.601374458091	1
65	58352	157.601374458091	2
65	58356	157.601431958091	1
65	58362	157.602989041424	2
65	58368	157.603872041424	1
65	58368	157.603872041424	0
65	58524	158.100607821358	1
65	58526	158.100607821358	2
65	58530	158.100665321358	1
65	58536	158.102222404691	2
65	58543	158.103841404691	1
65	58543	158.103841404691	0
65	58685	158.600447764608	1
65	58687	158.600447764608	2
65	58691	158.600505264608	1
65	58697	158.602062347941	2
65	58701	158.602853347941	1
65	58701	158.602853347941	0
65	58855	159.100673490074	1
65	58857	159.100673490074	2
65	58861	159.100730990074	1
65	58867	159.102288073407	2
65	58871	159.102587073407	1
65	58871	159.102587073407	0
65	59014	159.601061163612	1
65	59016	159.601061163612	2
65	59020	159.601118663612	1
65	59026	159.602675746945	2
65	59030	159.602894746945	1
65	59030	159.602894746945	0
65	59189	160.100359578934	1
65	59191	160.100359578934	2
65	59195	160.100417078934	1
65	59201	160.101974162267	2
65	59207	160.103945162267	1
65	59207	160.103945162267	0
65	59353	160.600912476202	1
65	59355	160.600912476202	2
65	59359	160.600969976202	1
65	59365	160.602527059535	2
65	59369	160.602962059535	1
65	59369	160.602962059535	0
65	59540	161.101010531729	1
65	59542	161.101010531729	2
65	59546	161.101068031729	1
65	59552	161.102625115062	2
65	59556	161.103148115062	1
65	59556	161.103148115062	0
65	59695	161.600604110812	1
65	59697	161.600604110812	2
65	59701	161.600661610812	1
65	59707	161.602218694145	2
65	59711	161.602405694145	1
65	59711	161.602405694145	0
65	59859	162.101403703908	1
65	59861	162.101403703908	2
65	59865	162.101461203908	1
65	59871	162.103018287241	2
65	59877	162.103293287241	1
65	59877	162.103293287241	0
65	60025	162.601376023656	1
65	60027	162.601376023656	2
65	60031	162.601433523656	1
65	60037	162.602990606989	2
65	60043	162.603657606989	1
65	60043	162.603657606989	0
65	60212	163.101018158506	1
65	60214	163.101018158506	2
65	60218	163.101075658506	1
65	60224	163.102632741839	2
65	60228	163.103167741839	1
65	60228	163.103167741839	0
65	60379	163.600975573999	1
65	60381	163.600975573999	2
65	60385	163.601033073999	1
65	60391	163.602590157332	2
65	60398	163.603389157332	1
65	60398	163.603389157332	0
65	60526	164.101462592324	1
65	60528	164.101462592324	2
65	60532	164.101520092324	1
65	60538	164.103077175657	2
65	60544	164.104072175657	1
65	60544	164.104072175657	0
65	60661	164.601367833431	1
65	60663	164.601367833431	2
65	60667	164.601425333431	1
65	60673	164.602982416764	2
65	60677	164.603149416764	1
65	60677	164.603149416764	0
65	60838	165.100970013564	1
65	60840	165.100970013564	2
65	60844	165.101027513564	1
65	60850	165.102584596897	2
65	60854	165.102751596897	1
65	60854	165.102751596897	0
65	61007	165.601367586567	1
65	61009	165.601367586567	2
65	61013	165.601425086567	1
65	61019	165.6029821699	2
65	61025	165.6033931699	1
65	61025	165.6033931699	0
65	61201	166.100022993656	1
65	61203	166.100022993656	2
65	61207	166.100080493656	1
65	61213	166.101637576989	2
65	61217	166.101904576989	1
65	61217	166.101904576989	0
65	61359	166.600977160485	1
65	61361	166.600977160485	2
65	61365	166.601034660485	1
65	61371	166.602591743818	2
65	61375	166.603070743818	1
65	61375	166.603070743818	0
65	61545	167.101008307742	1
65	61547	167.101008307742	2
65	61551	167.101065807742	1
65	61557	167.102622891075	2
65	61561	167.102813891075	1
65	61561	167.102813891075	0
65	61719	167.600129289246	1
65	61721	167.600129289246	2
65	61725	167.600186789246	1
65	61731	167.601743872579	2
65	61735	167.602118872579	1
65	61735	167.602118872579	0
65	61898	168.10111683762	1
65	61900	168.10111683762	2
65	61904	168.10117433762	1
65	61910	168.102731420953	2
65	61914	168.103170420953	1
65	61914	168.103170420953	0
65	62073	168.600391625447	1
65	62075	168.600391625447	2
65	62079	168.600449125447	1
65	62085	168.60200620878	2
65	62089	168.60229320878	1
65	62089	168.60229320878	0
65	62244	169.100289464611	1
65	62246	169.100289464611	2
65	62250	169.100346964611	1
65	62256	169.101904047944	2
65	62261	169.102795047944	1
65	62261	169.102795047944	0
65	62414	169.60151295207	1
65	62416	169.60151295207	2
65	62420	169.60157045207	1
65	62426	169.603127535403	2
65	62432	169.603382535403	1
65	62432	169.603382535403	0
65	62593	170.10058623534	1
65	62595	170.10058623534	2
65	62599	170.10064373534	1
65	62605	170.102200818673	2
65	62609	170.102559818673	1
65	62609	170.102559818673	0
