version 2
run BaseConfig-0-20170219-21:19:11-11380
attr NM 6
attr NS (6)
attr SPM ((6)/6)
attr configname BaseConfig
attr datetime 20170219-21:19:11
attr experiment BaseConfig
attr inifile omnetpp.ini
attr iterationvars "$NM=6, $NS=(6), $SPM=((6)/6)"
attr iterationvars2 "$NM=6, $NS=(6), $SPM=((6)/6), $repetition=0"
attr measurement "$NM=6, $NS=(6), $SPM=((6)/6)"
attr network Base
attr processid 11380
attr repetition 0
attr replication #0
attr resultdir results
attr runnumber 0
attr seedset 0
param **.forwarding true
param *.configurator.addStaticRoutes false
param *.node*[*].wlan[*].mac.address "\"auto\""
param *.node*[*].wlan[*].mac.headerLength 10B
param *.node*[*].wlan[*].mac.mtu 0B
param *.node*[*].wlan[*].mac.numSlots 2*(${NM}+${NS})
param *.node*[*].wlan[*].mac.queueLength 10*${NS}
param *.node*[*].wlan[*].mac.slotDuration 100ms
param *.node*[*].wlan[*].macType "\"CubeMacLayer\""
param *.node*[*].wlan[*].radio.transmitter.bitrate 2Mbps
param *.node*[*].wlan[*].radio.transmitter.detectionRange 0m
param *.node*[*].wlan[*].radio.transmitter.headerBitLength 100b
param *.node*[*].wlan[*].radio.transmitter.interferenceRange 0m
param *.node*[*].wlan[*].radio.transmitter.preambleDuration 0s
param *.node*[*].wlan[*].radioType "\"IdealRadio\""
param *.node*[*].wlan[*].typename "\"WirelessNic\""
param *.node*[*].wlan[0].radio.displayCommunicationRange true
param *.node*[*].wlan[0].radio.receiver.ignoreInterference true
param *.nodeMaster[*].**.cx 500m
param *.nodeMaster[*].**.cy 500m
param *.nodeMaster[*].**.cz 0m
param *.nodeMaster[*].**.r 250m
param *.nodeMaster[*].**.startAngle "parentIndex() * (360deg/${NM})"
param *.nodeMaster[*].mobilityType "\"CircleMobility\""
param *.nodeMaster[*].numUdpApps 1
param *.nodeMaster[*].udpApp[0].localPort 5000
param *.nodeMaster[*].udpApp[0].typename "\"UDPSink\""
param *.nodeMaster[*].wlan[*].radio.transmitter.communicationRange 350m
param *.nodeSlave[*].**.cx 500m
param *.nodeSlave[*].**.cy 500m
param *.nodeSlave[*].**.cz 0m
param *.nodeSlave[*].**.r 275m
param *.nodeSlave[*].mobilityType "\"CircleMobility\""
param *.nodeSlave[*].numUdpApps 1
param *.nodeSlave[*].udpApp[0].destAddresses "\"nodeMaster[0]\""
param *.nodeSlave[*].udpApp[0].destPort 5000
param *.nodeSlave[*].udpApp[0].messageLength exponential(128B)
param *.nodeSlave[*].udpApp[0].packetName "\"UDPData\""
param *.nodeSlave[*].udpApp[0].sendInterval exponential(100ms)
param *.nodeSlave[*].udpApp[0].startTime 5s
param *.nodeSlave[*].udpApp[0].typename "\"UDPBasicApp\""
param *.nodeSlave[*].wlan[*].radio.transmitter.communicationRange 75m
param *.nodeSlave[..5].**.startAngle "(parentIndex() * (360deg/${NM})) + 10deg"
param *.numMasters ${NM=6}
param *.numSlaves ${NS=(${NM})}
param *.radioMediumType "\"IdealRadioMedium\""
param *.slavesPerMaster ${SPM=(${NS}/${NM})}
param *.visualizer.dataLinkVisualizer.packetNameFilter "\"UDPData*\""
param *.visualizer.networkRouteVisualizer.packetNameFilter "\"UDPData*\""
param *.visualizer.physicalLinkVisualizer.packetNameFilter "\"UDPData*\""

vector 13  Base.nodeMaster[0].wlan[0].radio  radioMode:vector  ETV
attr interpolationmode  sample-hold
attr source  radioModeChanged
attr title  "Radio mode, vector"
vector 29  Base.nodeMaster[1].wlan[0].radio  radioMode:vector  ETV
attr interpolationmode  sample-hold
attr source  radioModeChanged
attr title  "Radio mode, vector"
vector 45  Base.nodeMaster[2].wlan[0].radio  radioMode:vector  ETV
attr interpolationmode  sample-hold
attr source  radioModeChanged
attr title  "Radio mode, vector"
vector 61  Base.nodeMaster[3].wlan[0].radio  radioMode:vector  ETV
attr interpolationmode  sample-hold
attr source  radioModeChanged
attr title  "Radio mode, vector"
vector 77  Base.nodeMaster[4].wlan[0].radio  radioMode:vector  ETV
attr interpolationmode  sample-hold
attr source  radioModeChanged
attr title  "Radio mode, vector"
vector 93  Base.nodeMaster[5].wlan[0].radio  radioMode:vector  ETV
attr interpolationmode  sample-hold
attr source  radioModeChanged
attr title  "Radio mode, vector"
vector 110  Base.nodeSlave[0].wlan[0].radio  radioMode:vector  ETV
attr interpolationmode  sample-hold
attr source  radioModeChanged
attr title  "Radio mode, vector"
vector 127  Base.nodeSlave[1].wlan[0].radio  radioMode:vector  ETV
attr interpolationmode  sample-hold
attr source  radioModeChanged
attr title  "Radio mode, vector"
vector 144  Base.nodeSlave[2].wlan[0].radio  radioMode:vector  ETV
attr interpolationmode  sample-hold
attr source  radioModeChanged
attr title  "Radio mode, vector"
vector 161  Base.nodeSlave[3].wlan[0].radio  radioMode:vector  ETV
attr interpolationmode  sample-hold
attr source  radioModeChanged
attr title  "Radio mode, vector"
vector 178  Base.nodeSlave[4].wlan[0].radio  radioMode:vector  ETV
attr interpolationmode  sample-hold
attr source  radioModeChanged
attr title  "Radio mode, vector"
vector 195  Base.nodeSlave[5].wlan[0].radio  radioMode:vector  ETV
attr interpolationmode  sample-hold
attr source  radioModeChanged
attr title  "Radio mode, vector"
vector 14  Base.nodeMaster[0].wlan[0].radio  receptionState:vector  ETV
attr interpolationmode  sample-hold
attr source  receptionStateChanged
attr title  "Radio reception state, vector"
vector 30  Base.nodeMaster[1].wlan[0].radio  receptionState:vector  ETV
attr interpolationmode  sample-hold
attr source  receptionStateChanged
attr title  "Radio reception state, vector"
vector 46  Base.nodeMaster[2].wlan[0].radio  receptionState:vector  ETV
attr interpolationmode  sample-hold
attr source  receptionStateChanged
attr title  "Radio reception state, vector"
vector 62  Base.nodeMaster[3].wlan[0].radio  receptionState:vector  ETV
attr interpolationmode  sample-hold
attr source  receptionStateChanged
attr title  "Radio reception state, vector"
vector 78  Base.nodeMaster[4].wlan[0].radio  receptionState:vector  ETV
attr interpolationmode  sample-hold
attr source  receptionStateChanged
attr title  "Radio reception state, vector"
vector 94  Base.nodeMaster[5].wlan[0].radio  receptionState:vector  ETV
attr interpolationmode  sample-hold
attr source  receptionStateChanged
attr title  "Radio reception state, vector"
vector 111  Base.nodeSlave[0].wlan[0].radio  receptionState:vector  ETV
attr interpolationmode  sample-hold
attr source  receptionStateChanged
attr title  "Radio reception state, vector"
vector 128  Base.nodeSlave[1].wlan[0].radio  receptionState:vector  ETV
attr interpolationmode  sample-hold
attr source  receptionStateChanged
attr title  "Radio reception state, vector"
vector 145  Base.nodeSlave[2].wlan[0].radio  receptionState:vector  ETV
attr interpolationmode  sample-hold
attr source  receptionStateChanged
attr title  "Radio reception state, vector"
vector 162  Base.nodeSlave[3].wlan[0].radio  receptionState:vector  ETV
attr interpolationmode  sample-hold
attr source  receptionStateChanged
attr title  "Radio reception state, vector"
vector 179  Base.nodeSlave[4].wlan[0].radio  receptionState:vector  ETV
attr interpolationmode  sample-hold
attr source  receptionStateChanged
attr title  "Radio reception state, vector"
vector 196  Base.nodeSlave[5].wlan[0].radio  receptionState:vector  ETV
attr interpolationmode  sample-hold
attr source  receptionStateChanged
attr title  "Radio reception state, vector"
vector 129  Base.nodeSlave[1].wlan[0].radio  transmissionState:vector  ETV
attr interpolationmode  sample-hold
attr source  transmissionStateChanged
attr title  "Radio transmission state, vector"
vector 199  Base.nodeMaster[1].wlan[0].mac  slotChange  ETV
vector 47  Base.nodeMaster[2].wlan[0].radio  transmissionState:vector  ETV
attr interpolationmode  sample-hold
attr source  transmissionStateChanged
attr title  "Radio transmission state, vector"
vector 63  Base.nodeMaster[3].wlan[0].radio  transmissionState:vector  ETV
attr interpolationmode  sample-hold
attr source  transmissionStateChanged
attr title  "Radio transmission state, vector"
vector 79  Base.nodeMaster[4].wlan[0].radio  transmissionState:vector  ETV
attr interpolationmode  sample-hold
attr source  transmissionStateChanged
attr title  "Radio transmission state, vector"
vector 95  Base.nodeMaster[5].wlan[0].radio  transmissionState:vector  ETV
attr interpolationmode  sample-hold
attr source  transmissionStateChanged
attr title  "Radio transmission state, vector"
vector 31  Base.nodeMaster[1].wlan[0].radio  transmissionState:vector  ETV
attr interpolationmode  sample-hold
attr source  transmissionStateChanged
attr title  "Radio transmission state, vector"
vector 146  Base.nodeSlave[2].wlan[0].radio  transmissionState:vector  ETV
attr interpolationmode  sample-hold
attr source  transmissionStateChanged
attr title  "Radio transmission state, vector"
vector 163  Base.nodeSlave[3].wlan[0].radio  transmissionState:vector  ETV
attr interpolationmode  sample-hold
attr source  transmissionStateChanged
attr title  "Radio transmission state, vector"
vector 180  Base.nodeSlave[4].wlan[0].radio  transmissionState:vector  ETV
attr interpolationmode  sample-hold
attr source  transmissionStateChanged
attr title  "Radio transmission state, vector"
vector 197  Base.nodeSlave[5].wlan[0].radio  transmissionState:vector  ETV
attr interpolationmode  sample-hold
attr source  transmissionStateChanged
attr title  "Radio transmission state, vector"
vector 15  Base.nodeMaster[0].wlan[0].radio  transmissionState:vector  ETV
attr interpolationmode  sample-hold
attr source  transmissionStateChanged
attr title  "Radio transmission state, vector"
vector 204  Base.nodeSlave[0].wlan[0].mac  slotChange  ETV
vector 112  Base.nodeSlave[0].wlan[0].radio  transmissionState:vector  ETV
attr interpolationmode  sample-hold
attr source  transmissionStateChanged
attr title  "Radio transmission state, vector"
vector 97  Base.nodeSlave[0].udpApp[0]  sentPk:vector(packetBytes)  ETV
attr interpolationmode  none
attr source  sentPk
attr title  "packets sent, vector(packetBytes)"
vector 114  Base.nodeSlave[1].udpApp[0]  sentPk:vector(packetBytes)  ETV
attr interpolationmode  none
attr source  sentPk
attr title  "packets sent, vector(packetBytes)"
vector 131  Base.nodeSlave[2].udpApp[0]  sentPk:vector(packetBytes)  ETV
attr interpolationmode  none
attr source  sentPk
attr title  "packets sent, vector(packetBytes)"
vector 148  Base.nodeSlave[3].udpApp[0]  sentPk:vector(packetBytes)  ETV
attr interpolationmode  none
attr source  sentPk
attr title  "packets sent, vector(packetBytes)"
vector 165  Base.nodeSlave[4].udpApp[0]  sentPk:vector(packetBytes)  ETV
attr interpolationmode  none
attr source  sentPk
attr title  "packets sent, vector(packetBytes)"
vector 182  Base.nodeSlave[5].udpApp[0]  sentPk:vector(packetBytes)  ETV
attr interpolationmode  none
attr source  sentPk
attr title  "packets sent, vector(packetBytes)"
vector 100  Base.nodeSlave[0].udp  sentPk:vector(packetBytes)  ETV
attr interpolationmode  none
attr source  sentPk
attr title  "packets sent, vector(packetBytes)"
vector 117  Base.nodeSlave[1].udp  sentPk:vector(packetBytes)  ETV
attr interpolationmode  none
attr source  sentPk
attr title  "packets sent, vector(packetBytes)"
vector 134  Base.nodeSlave[2].udp  sentPk:vector(packetBytes)  ETV
attr interpolationmode  none
attr source  sentPk
attr title  "packets sent, vector(packetBytes)"
vector 151  Base.nodeSlave[3].udp  sentPk:vector(packetBytes)  ETV
attr interpolationmode  none
attr source  sentPk
attr title  "packets sent, vector(packetBytes)"
vector 168  Base.nodeSlave[4].udp  sentPk:vector(packetBytes)  ETV
attr interpolationmode  none
attr source  sentPk
attr title  "packets sent, vector(packetBytes)"
vector 185  Base.nodeSlave[5].udp  sentPk:vector(packetBytes)  ETV
attr interpolationmode  none
attr source  sentPk
attr title  "packets sent, vector(packetBytes)"
13	0	0	0
13	73	0.1	2
13	473	0.158493152639	1
13	493	0.162499999996	2
13	522	0.163830201344	1
13	537	0.167708333329	2
13	897	0.220324605815	3
13	911	0.220391605815	1
13	936	0.224999999992	2
13	1335	0.284007255072	1
13	1355	0.287499999988	2
13	1385	0.289185369922	1
13	1399	0.292708333321	2
13	1703	0.330532176798	1
13	1722	0.334374999985	2
13	1785	0.346129109666	3
13	1799	0.346196109666	1
13	1816	0.349999999984	2
13	2222	0.408032672644	1
13	2243	0.41249999998	2
13	2273	0.414791727877	1
13	2287	0.417708333313	2
13	2591	0.454694737874	1
13	2610	0.459374999977	2
13	2673	0.469999076724	3
13	2687	0.470066076724	1
13	2704	0.474999999976	2
13	3111	0.533109158934	1
13	3132	0.537499999972	2
13	3161	0.538682735786	1
13	3175	0.542708333305	2
13	3479	0.580521053345	1
13	3498	0.584374999969	2
13	3561	0.596345690875	3
13	3575	0.596412690875	1
13	3592	0.599999999968	2
13	3999	0.65935817548	1
13	4020	0.662499999964	2
13	4049	0.663141547953	1
13	4063	0.667708333297	2
13	4367	0.70519079709	1
13	4386	0.709374999961	2
13	4449	0.720317039614	3
13	4463	0.720384039614	1
13	4480	0.72499999996	2
13	4887	0.784424838405	1
13	4907	0.787499999956	2
13	4937	0.788883554483	1
13	4951	0.792708333289	2
13	5255	0.831814184134	1
13	5274	0.834374999953	2
13	5337	0.846302094179	3
13	5351	0.846369094179	1
13	5368	0.849999999952	2
13	5775	0.909578982382	1
13	5795	0.912499999948	2
13	5825	0.915079685635	1
13	5839	0.917708333281	2
13	6143	0.956820471353	1
13	6162	0.959374999945	2
13	6225	0.970681285508	3
13	6239	0.970748285508	1
13	6256	0.974999999944	2
13	6675	1.034466727822	1
13	6695	1.03749999994	2
13	6725	1.038705196512	1
13	6739	1.042708333273	2
13	7043	1.079947833224	1
13	7062	1.084374999937	2
13	7125	1.097275370307	3
13	7139	1.097342370307	1
13	7156	1.099999999936	2
13	7563	1.159828485987	1
13	7584	1.162499999932	2
13	7613	1.163521850498	1
13	7627	1.167708333265	2
13	7931	1.204809356395	1
13	7950	1.209374999929	2
13	8013	1.21986250609	3
13	8027	1.21992950609	1
13	8044	1.224999999928	2
13	8451	1.284672791507	1
13	8472	1.287499999924	2
13	8501	1.290155990111	1
13	8515	1.292708333257	2
13	8819	1.331062074831	1
13	8838	1.334374999921	2
13	8901	1.346358898666	3
13	8915	1.346425898666	1
13	8932	1.34999999992	2
13	9339	1.409860317498	1
13	9359	1.412499999916	2
13	9389	1.41333091516	1
13	9403	1.417708333249	2
13	9707	1.456218033057	1
13	9726	1.459374999913	2
13	9789	1.469910622217	3
13	9803	1.469977622217	1
13	9820	1.474999999912	2
13	10226	1.533706976425	1
13	10247	1.537499999908	2
13	10277	1.538880334961	1
13	10291	1.542708333241	2
13	10595	1.580727701017	1
13	10614	1.584374999905	2
13	10677	1.595799192311	3
13	10691	1.595866192311	1
13	10708	1.599999999904	2
13	11114	1.657373939073	1
13	11135	1.6624999999	2
13	11164	1.663555361327	1
13	11180	1.667708333233	2
13	11483	1.704788353987	1
13	11502	1.709374999897	2
13	11565	1.720493199899	3
13	11579	1.720560199899	1
13	11596	1.724999999896	2
13	12002	1.783305661644	1
13	12024	1.787499999892	2
13	12053	1.789292318234	1
13	12067	1.792708333225	2
13	12371	1.83161528713	1
13	12390	1.834374999889	2
13	12453	1.845872150496	3
13	12467	1.845939150496	1
13	12484	1.849999999888	2
13	12891	1.909002319878	1
13	12911	1.912499999884	2
13	12941	1.915101455385	1
13	12955	1.917708333217	2
13	13259	1.956740245465	1
13	13278	1.959374999881	2
13	13341	1.969900514742	3
13	13355	1.969967514742	1
13	13372	1.97499999988	2
13	13791	2.034451823706	1
13	13811	2.037499999876	2
13	13840	2.038126781046	1
13	13855	2.042708333209	2
13	14159	2.080776799591	1
13	14178	2.084374999873	2
13	14241	2.096514274155	3
13	14255	2.096581274155	1
13	14272	2.099999999872	2
13	14679	2.159881090477	1
13	14699	2.162499999868	2
13	14729	2.164593896689	1
13	14743	2.167708333201	2
13	15047	2.205330554803	1
13	15066	2.209374999865	2
13	15129	2.221741608922	3
13	15143	2.221808608922	1
13	15160	2.224999999864	2
13	15567	2.28331941591	1
13	15587	2.28749999986	2
13	15616	2.288142932512	1
13	15631	2.292708333193	2
13	15935	2.331312539745	1
13	15954	2.334374999857	2
13	16017	2.345693327754	3
13	16031	2.345760327754	1
13	16048	2.349999999856	2
13	16455	2.409779135587	1
13	16475	2.412499999852	2
13	16504	2.413660894856	1
13	16519	2.417708333185	2
13	16823	2.454338036213	1
13	16842	2.459374999849	2
13	16905	2.471943358772	3
13	16919	2.472010358772	1
13	16936	2.474999999848	2
13	17343	2.534541350806	1
13	17363	2.537499999844	2
13	17393	2.539107566452	1
13	17407	2.542708333177	2
13	17711	2.580268355885	1
13	17730	2.584374999841	2
13	17793	2.596613334795	3
13	17807	2.596680334795	1
13	17824	2.59999999984	2
13	18230	2.658567163455	1
13	18251	2.662499999836	2
13	18281	2.662855810688	1
13	18295	2.667708333169	2
13	18599	2.704234162106	1
13	18618	2.709374999833	2
13	18681	2.72143062412	3
13	18695	2.72149762412	1
13	18712	2.724999999832	2
13	19119	2.783700279486	1
13	19139	2.787499999828	2
13	19169	2.787815979701	1
13	19183	2.792708333161	2
13	19487	2.830613582909	1
13	19506	2.834374999825	2
13	19569	2.845535426211	3
13	19583	2.845602426211	1
13	19600	2.849999999824	2
13	20007	2.909624366598	1
13	20027	2.91249999982	2
13	20057	2.914768649147	1
13	20071	2.917708333153	2
13	20375	2.955550016389	1
13	20394	2.959374999817	2
13	20457	2.970396141093	3
13	20471	2.970463141093	1
13	20488	2.974999999816	2
13	20907	3.032930568027	1
13	20927	3.037499999812	2
13	20957	3.039833838652	1
13	20971	3.042708333145	2
13	21275	3.079367924077	1
13	21294	3.084374999809	2
13	21357	3.096492240719	3
13	21371	3.096559240719	1
13	21388	3.099999999808	2
13	21795	3.159476120047	1
13	21816	3.162499999804	2
13	21845	3.163165682745	1
13	21859	3.167708333137	2
13	22163	3.204275794056	1
13	22182	3.209374999801	2
13	22245	3.219871326566	3
13	22259	3.219938326566	1
13	22276	3.2249999998	2
13	22683	3.284730999115	1
13	22703	3.287499999796	2
13	22732	3.287703830384	1
13	22747	3.292708333129	2
13	23051	3.3301667577	1
13	23070	3.334374999793	2
13	23133	3.345820704896	3
13	23147	3.345887704896	1
13	23164	3.349999999792	2
13	23570	3.407438584354	1
13	23591	3.412499999788	2
13	23621	3.41484977759	1
13	23636	3.417708333121	2
13	23939	3.455363386878	1
13	23958	3.459374999785	2
13	24021	3.470547986101	3
13	24035	3.470614986101	1
13	24052	3.474999999784	2
13	24458	3.533493669177	1
13	24479	3.53749999978	2
13	24508	3.538734538675	1
13	24523	3.542708333113	2
13	24827	3.580497001066	1
13	24846	3.584374999777	2
13	24909	3.595949411919	3
13	24923	3.596016411919	1
13	24940	3.599999999776	2
13	25346	3.658202425356	1
13	25367	3.662499999772	2
13	25396	3.662678326366	1
13	25411	3.667708333105	2
13	25715	3.704577829161	1
13	25734	3.709374999769	2
13	25797	3.721635341369	3
13	25811	3.721702341369	1
13	25828	3.724999999768	2
13	26234	3.782387627744	1
13	26255	3.787499999764	2
13	26284	3.788877153329	1
13	26300	3.792708333097	2
13	26603	3.831004744508	1
13	26622	3.834374999761	2
13	26685	3.846045463713	3
13	26699	3.846112463713	1
13	26716	3.84999999976	2
13	27122	3.907759410944	1
13	27143	3.912499999756	2
13	27172	3.913647156721	1
13	27187	3.917708333089	2
13	27491	3.956152070758	1
13	27510	3.959374999753	2
13	27573	3.971655591124	3
13	27587	3.971722591124	1
13	27604	3.974999999752	2
13	28023	4.034514326758	1
13	28044	4.037499999748	2
13	28073	4.040016923491	1
13	28087	4.042708333081	2
13	28391	4.081426542486	1
13	28410	4.084374999745	2
13	28473	4.095529319398	3
13	28487	4.095596319398	1
13	28504	4.099999999744	2
13	28911	4.158995388907	1
13	28931	4.16249999974	2
13	28961	4.164979035726	1
13	28975	4.167708333073	2
13	29279	4.205383289723	1
13	29298	4.209374999737	2
13	29361	4.221620479529	3
13	29375	4.221687479529	1
13	29392	4.224999999736	2
13	29799	4.284871949931	1
13	29819	4.287499999732	2
13	29848	4.288137679431	1
13	29863	4.292708333065	2
13	30167	4.330135137432	1
13	30186	4.334374999729	2
13	30249	4.34625879168	3
13	30263	4.34632579168	1
13	30280	4.349999999728	2
13	30687	4.409397607119	1
13	30707	4.412499999724	2
13	30737	4.414761409269	1
13	30751	4.417708333057	2
13	31055	4.455129256554	1
13	31074	4.459374999721	2
13	31137	4.471916716268	3
13	31151	4.471983716268	1
13	31168	4.47499999972	2
13	31574	4.532538144009	1
13	31595	4.537499999716	2
13	31625	4.538110808872	1
13	31640	4.542708333049	2
13	31943	4.581476099728	1
13	31962	4.584374999713	2
13	32025	4.595700524821	3
13	32039	4.595767524821	1
13	32056	4.599999999712	2
13	32463	4.657552887807	1
13	32483	4.662499999708	2
13	32513	4.664737524355	1
13	32528	4.667708333041	2
13	32831	4.705299464223	1
13	32850	4.709374999705	2
13	32913	4.72188389076	3
13	32927	4.72195089076	1
13	32944	4.724999999704	2
13	33351	4.78461517799	1
13	33372	4.7874999997	2
13	33401	4.788700863947	1
13	33415	4.792708333033	2
13	33719	4.831701088421	1
13	33738	4.834374999697	2
13	33801	4.846665852674	3
13	33815	4.846732852674	1
13	33832	4.849999999696	2
13	34238	4.907464760131	1
13	34259	4.912499999692	2
13	34288	4.913429153988	1
13	34304	4.917708333025	2
13	34607	4.954625731963	1
13	34626	4.959374999689	2
13	34689	4.970871039399	3
13	34703	4.970938039399	1
13	34720	4.974999999688	2
13	35178	5.032393971703	1
13	35198	5.037499999684	2
13	35227	5.038575386576	1
13	35243	5.042708333017	2
13	35555	5.080342275653	1
13	35574	5.084374999681	2
13	35640	5.095256014852	3
13	35654	5.095323014852	1
13	35671	5.09999999968	2
13	36081	5.159299704056	1
13	36101	5.162499999676	2
13	36130	5.163243563805	1
13	36145	5.167708333009	2
13	36455	5.205903414492	1
13	36474	5.209374999673	2
13	36537	5.220432951733	3
13	36551	5.220499951733	1
13	36571	5.224999999672	2
13	36980	5.283541995833	1
13	37001	5.287499999668	2
13	37030	5.287880437204	1
13	37048	5.292708333001	2
13	37382	5.331123501767	1
13	37401	5.334374999665	2
13	37467	5.345119222026	3
13	37481	5.345186222026	1
13	37498	5.349999999664	2
13	37920	5.409272743228	1
13	37940	5.41249999966	2
13	37970	5.413025448647	1
13	37984	5.417708332993	2
13	38294	5.45477190976	1
13	38316	5.459374999657	2
13	38382	5.470910386677	3
13	38396	5.470977386677	1
13	38416	5.474999999656	2
13	38829	5.534577396775	1
13	38850	5.537499999652	2
13	38879	5.539431715306	1
13	38893	5.542708332985	2
13	39206	5.580109603033	1
13	39225	5.584374999649	2
13	39294	5.596649274551	3
13	39308	5.596716274551	1
13	39328	5.599999999648	2
13	39747	5.657695033772	1
13	39767	5.662499999644	2
13	39796	5.664268112067	1
13	39812	5.667708332977	2
13	40124	5.704659202762	1
13	40146	5.709374999641	2
13	40209	5.72124726733	3
13	40223	5.72131426733	1
13	40240	5.72499999964	2
13	40668	5.784533890458	1
13	40688	5.787499999636	2
13	40718	5.789153589159	1
13	40732	5.792708332969	2
13	41054	5.830767947129	1
13	41073	5.834374999633	2
13	41139	5.847366828005	3
13	41153	5.847433828005	1
13	41170	5.849999999632	2
13	41589	5.909886968312	1
13	41609	5.912499999628	2
13	41639	5.914375522457	1
13	41653	5.917708332961	2
13	41966	5.954341251395	1
13	41988	5.959374999625	2
13	42051	5.972269557311	3
13	42065	5.972336557311	1
13	42082	5.974999999624	2
13	42506	6.032407754347	1
13	42527	6.03749999962	2
13	42556	6.037759235574	1
13	42572	6.042708332953	2
13	42881	6.079373137385	1
13	42900	6.084374999617	2
13	42966	6.09522077728	3
13	42980	6.09528777728	1
13	43000	6.099999999616	2
13	43416	6.1579750919	1
13	43436	6.162499999612	2
13	43465	6.163939287752	1
13	43483	6.167708332945	2
13	43787	6.204754403019	1
13	43806	6.209374999609	2
13	43872	6.220470624655	3
13	43886	6.220537624655	1
13	43903	6.224999999608	2
13	44325	6.282731883592	1
13	44345	6.287499999604	2
13	44374	6.287607042197	1
13	44389	6.292708332937	2
13	44702	6.329791764204	1
13	44724	6.334374999601	2
13	44787	6.345762741486	3
13	44801	6.345829741486	1
13	44818	6.3499999996	2
13	45243	6.408855454189	1
13	45263	6.412499999596	2
13	45293	6.415022053852	1
13	45307	6.417708332929	2
13	45644	6.455094925719	1
13	45663	6.459374999593	2
13	45729	6.470120208206	3
13	45743	6.470187208206	1
13	45760	6.474999999592	2
13	46175	6.533435064332	1
13	46196	6.537499999588	2
13	46226	6.53992016724	1
13	46240	6.542708332921	2
13	46550	6.579834219224	1
13	46569	6.584374999585	2
13	46632	6.596531508268	3
13	46646	6.596598508268	1
13	46663	6.599999999584	2
13	47088	6.658576522756	1
13	47111	6.66249999958	2
13	47141	6.663446396746	1
13	47155	6.667708332913	2
13	47474	6.704803597689	1
13	47493	6.709374999577	2
13	47556	6.721182556076	3
13	47570	6.721249556076	1
13	47587	6.724999999576	2
13	47996	6.782595093848	1
13	48017	6.787499999572	2
13	48047	6.79002400724	1
13	48062	6.792708332905	2
13	48371	6.831487213297	1
13	48390	6.834374999569	2
13	48453	6.844816276581	3
13	48467	6.844883276581	1
13	48487	6.849999999568	2
13	48900	6.909309929924	1
13	48920	6.912499999564	2
13	48950	6.913012327039	1
13	48964	6.917708332897	2
13	49280	6.95489333697	1
13	49299	6.959374999561	2
13	49365	6.96995547231	3
13	49379	6.97002247231	1
13	49396	6.97499999956	2
13	49827	7.034431675326	1
13	49847	7.037499999556	2
13	49876	7.037749241269	1
13	49891	7.042708332889	2
13	50204	7.080116049981	1
13	50223	7.084374999553	2
13	50286	7.096000552535	3
13	50300	7.096067552535	1
13	50317	7.099999999552	2
13	50739	7.159049027762	1
13	50759	7.162499999548	2
13	50789	7.163410355634	1
14	73	0.1	1
14	457	0.158426152639	3
14	471	0.158493152639	1
14	473	0.158493152639	0
14	493	0.162499999996	1
14	506	0.163763201344	3
14	520	0.163830201344	1
14	522	0.163830201344	0
14	537	0.167708333329	1
14	897	0.220324605815	0
14	936	0.224999999992	1
14	1319	0.283940255072	3
14	1333	0.284007255072	1
14	1335	0.284007255072	0
14	1355	0.287499999988	1
14	1369	0.289118369922	3
14	1383	0.289185369922	1
14	1385	0.289185369922	0
14	1399	0.292708333321	1
14	1690	0.330465176798	3
14	1702	0.330532176798	1
14	1703	0.330532176798	0
14	1722	0.334374999985	1
14	1785	0.346129109666	0
14	1816	0.349999999984	1
14	2206	0.407965672644	3
14	2220	0.408032672644	1
14	2222	0.408032672644	0
14	2243	0.41249999998	1
14	2257	0.414724727877	3
14	2271	0.414791727877	1
14	2273	0.414791727877	0
14	2287	0.417708333313	1
14	2578	0.454627737874	3
14	2590	0.454694737874	1
14	2591	0.454694737874	0
14	2610	0.459374999977	1
14	2673	0.469999076724	0
14	2704	0.474999999976	1
14	3095	0.533042158934	3
14	3109	0.533109158934	1
14	3111	0.533109158934	0
14	3132	0.537499999972	1
14	3145	0.538615735786	3
14	3159	0.538682735786	1
14	3161	0.538682735786	0
14	3175	0.542708333305	1
14	3466	0.580454053345	3
14	3478	0.580521053345	1
14	3479	0.580521053345	0
14	3498	0.584374999969	1
14	3561	0.596345690875	0
14	3592	0.599999999968	1
14	3983	0.65929117548	3
14	3997	0.65935817548	1
14	3999	0.65935817548	0
14	4020	0.662499999964	1
14	4033	0.663074547953	3
14	4047	0.663141547953	1
14	4049	0.663141547953	0
14	4063	0.667708333297	1
14	4354	0.70512379709	3
14	4366	0.70519079709	1
14	4367	0.70519079709	0
14	4386	0.709374999961	1
14	4449	0.720317039614	0
14	4480	0.72499999996	1
14	4871	0.784357838405	3
14	4885	0.784424838405	1
14	4887	0.784424838405	0
14	4907	0.787499999956	1
14	4921	0.788816554483	3
14	4935	0.788883554483	1
14	4937	0.788883554483	0
14	4951	0.792708333289	1
14	5242	0.831747184134	3
14	5254	0.831814184134	1
14	5255	0.831814184134	0
14	5274	0.834374999953	1
14	5337	0.846302094179	0
14	5368	0.849999999952	1
14	5759	0.909511982382	3
14	5773	0.909578982382	1
14	5775	0.909578982382	0
14	5795	0.912499999948	1
14	5809	0.915012685635	3
14	5823	0.915079685635	1
14	5825	0.915079685635	0
14	5839	0.917708333281	1
14	6130	0.956753471353	3
14	6142	0.956820471353	1
14	6143	0.956820471353	0
14	6162	0.959374999945	1
14	6225	0.970681285508	0
14	6256	0.974999999944	1
14	6659	1.034399727822	3
14	6673	1.034466727822	1
14	6675	1.034466727822	0
14	6695	1.03749999994	1
14	6709	1.038638196512	3
14	6723	1.038705196512	1
14	6725	1.038705196512	0
14	6739	1.042708333273	1
14	7030	1.079880833224	3
14	7042	1.079947833224	1
14	7043	1.079947833224	0
14	7062	1.084374999937	1
14	7125	1.097275370307	0
14	7156	1.099999999936	1
14	7547	1.159761485987	3
14	7561	1.159828485987	1
14	7563	1.159828485987	0
14	7584	1.162499999932	1
14	7597	1.163454850498	3
14	7611	1.163521850498	1
14	7613	1.163521850498	0
14	7627	1.167708333265	1
14	7918	1.204742356395	3
14	7930	1.204809356395	1
14	7931	1.204809356395	0
14	7950	1.209374999929	1
14	8013	1.21986250609	0
14	8044	1.224999999928	1
14	8435	1.284605791507	3
14	8449	1.284672791507	1
14	8451	1.284672791507	0
14	8472	1.287499999924	1
14	8485	1.290088990111	3
14	8499	1.290155990111	1
14	8501	1.290155990111	0
14	8515	1.292708333257	1
14	8806	1.330995074831	3
14	8818	1.331062074831	1
14	8819	1.331062074831	0
14	8838	1.334374999921	1
14	8901	1.346358898666	0
14	8932	1.34999999992	1
14	9323	1.409793317498	3
14	9337	1.409860317498	1
14	9339	1.409860317498	0
14	9359	1.412499999916	1
14	9373	1.41326391516	3
14	9387	1.41333091516	1
14	9389	1.41333091516	0
14	9403	1.417708333249	1
14	9694	1.456151033057	3
14	9706	1.456218033057	1
14	9707	1.456218033057	0
14	9726	1.459374999913	1
14	9789	1.469910622217	0
14	9820	1.474999999912	1
14	10210	1.533639976425	3
14	10224	1.533706976425	1
14	10226	1.533706976425	0
14	10247	1.537499999908	1
14	10261	1.538813334961	3
14	10275	1.538880334961	1
14	10277	1.538880334961	0
14	10291	1.542708333241	1
14	10582	1.580660701017	3
14	10594	1.580727701017	1
14	10595	1.580727701017	0
14	10614	1.584374999905	1
14	10677	1.595799192311	0
14	10708	1.599999999904	1
14	11098	1.657306939073	3
14	11112	1.657373939073	1
14	11114	1.657373939073	0
14	11135	1.6624999999	1
14	11148	1.663488361327	3
14	11162	1.663555361327	1
14	11164	1.663555361327	0
14	11180	1.667708333233	1
14	11470	1.704721353987	3
14	11482	1.704788353987	1
14	11483	1.704788353987	0
14	11502	1.709374999897	1
14	11565	1.720493199899	0
14	11596	1.724999999896	1
14	11986	1.783238661644	3
14	12000	1.783305661644	1
14	12002	1.783305661644	0
14	12024	1.787499999892	1
14	12037	1.789225318234	3
14	12051	1.789292318234	1
14	12053	1.789292318234	0
14	12067	1.792708333225	1
14	12358	1.83154828713	3
14	12370	1.83161528713	1
14	12371	1.83161528713	0
14	12390	1.834374999889	1
14	12453	1.845872150496	0
14	12484	1.849999999888	1
14	12875	1.908935319878	3
14	12889	1.909002319878	1
14	12891	1.909002319878	0
14	12911	1.912499999884	1
14	12925	1.915034455385	3
14	12939	1.915101455385	1
14	12941	1.915101455385	0
14	12955	1.917708333217	1
14	13246	1.956673245465	3
14	13258	1.956740245465	1
14	13259	1.956740245465	0
14	13278	1.959374999881	1
14	13341	1.969900514742	0
14	13372	1.97499999988	1
14	13774	2.034384823706	3
14	13789	2.034451823706	1
14	13791	2.034451823706	0
14	13811	2.037499999876	1
14	13824	2.038059781046	3
14	13838	2.038126781046	1
14	13840	2.038126781046	0
14	13855	2.042708333209	1
14	14146	2.080709799591	3
14	14158	2.080776799591	1
14	14159	2.080776799591	0
14	14178	2.084374999873	1
14	14241	2.096514274155	0
14	14272	2.099999999872	1
14	14663	2.159814090477	3
14	14677	2.159881090477	1
14	14679	2.159881090477	0
14	14699	2.162499999868	1
14	14713	2.164526896689	3
14	14727	2.164593896689	1
14	14729	2.164593896689	0
14	14743	2.167708333201	1
14	15034	2.205263554803	3
14	15046	2.205330554803	1
14	15047	2.205330554803	0
14	15066	2.209374999865	1
14	15129	2.221741608922	0
14	15160	2.224999999864	1
14	15551	2.28325241591	3
14	15565	2.28331941591	1
14	15567	2.28331941591	0
14	15587	2.28749999986	1
14	15600	2.288075932512	3
14	15614	2.288142932512	1
14	15616	2.288142932512	0
14	15631	2.292708333193	1
14	15922	2.331245539745	3
14	15934	2.331312539745	1
14	15935	2.331312539745	0
14	15954	2.334374999857	1
14	16017	2.345693327754	0
14	16048	2.349999999856	1
14	16439	2.409712135587	3
14	16453	2.409779135587	1
14	16455	2.409779135587	0
14	16475	2.412499999852	1
14	16488	2.413593894856	3
14	16502	2.413660894856	1
14	16504	2.413660894856	0
14	16519	2.417708333185	1
14	16810	2.454271036213	3
14	16822	2.454338036213	1
14	16823	2.454338036213	0
14	16842	2.459374999849	1
14	16905	2.471943358772	0
14	16936	2.474999999848	1
14	17327	2.534474350806	3
14	17341	2.534541350806	1
14	17343	2.534541350806	0
14	17363	2.537499999844	1
14	17377	2.539040566452	3
14	17391	2.539107566452	1
14	17393	2.539107566452	0
14	17407	2.542708333177	1
14	17698	2.580201355885	3
14	17710	2.580268355885	1
14	17711	2.580268355885	0
14	17730	2.584374999841	1
14	17793	2.596613334795	0
14	17824	2.59999999984	1
14	18214	2.658500163455	3
14	18228	2.658567163455	1
14	18230	2.658567163455	0
14	18251	2.662499999836	1
14	18265	2.662788810688	3
14	18279	2.662855810688	1
14	18281	2.662855810688	0
14	18295	2.667708333169	1
14	18586	2.704167162106	3
14	18598	2.704234162106	1
14	18599	2.704234162106	0
14	18618	2.709374999833	1
14	18681	2.72143062412	0
14	18712	2.724999999832	1
14	19103	2.783633279486	3
14	19117	2.783700279486	1
14	19119	2.783700279486	0
14	19139	2.787499999828	1
14	19153	2.787748979701	3
14	19167	2.787815979701	1
14	19169	2.787815979701	0
14	19183	2.792708333161	1
14	19474	2.830546582909	3
14	19486	2.830613582909	1
14	19487	2.830613582909	0
14	19506	2.834374999825	1
14	19569	2.845535426211	0
14	19600	2.849999999824	1
14	19991	2.909557366598	3
14	20005	2.909624366598	1
14	20007	2.909624366598	0
14	20027	2.91249999982	1
14	20041	2.914701649147	3
14	20055	2.914768649147	1
14	20057	2.914768649147	0
14	20071	2.917708333153	1
14	20362	2.955483016389	3
14	20374	2.955550016389	1
14	20375	2.955550016389	0
14	20394	2.959374999817	1
14	20457	2.970396141093	0
14	20488	2.974999999816	1
14	20891	3.032863568027	3
14	20905	3.032930568027	1
14	20907	3.032930568027	0
14	20927	3.037499999812	1
14	20941	3.039766838652	3
14	20955	3.039833838652	1
14	20957	3.039833838652	0
14	20971	3.042708333145	1
14	21262	3.079300924077	3
14	21274	3.079367924077	1
14	21275	3.079367924077	0
14	21294	3.084374999809	1
14	21357	3.096492240719	0
14	21388	3.099999999808	1
14	21779	3.159409120047	3
14	21793	3.159476120047	1
14	21795	3.159476120047	0
14	21816	3.162499999804	1
14	21829	3.163098682745	3
14	21843	3.163165682745	1
14	21845	3.163165682745	0
14	21859	3.167708333137	1
14	22150	3.204208794056	3
14	22162	3.204275794056	1
14	22163	3.204275794056	0
14	22182	3.209374999801	1
14	22245	3.219871326566	0
14	22276	3.2249999998	1
14	22667	3.284663999115	3
14	22681	3.284730999115	1
14	22683	3.284730999115	0
14	22703	3.287499999796	1
14	22716	3.287636830384	3
14	22730	3.287703830384	1
14	22732	3.287703830384	0
14	22747	3.292708333129	1
14	23038	3.3300997577	3
14	23050	3.3301667577	1
14	23051	3.3301667577	0
14	23070	3.334374999793	1
14	23133	3.345820704896	0
14	23164	3.349999999792	1
14	23554	3.407371584354	3
14	23568	3.407438584354	1
14	23570	3.407438584354	0
14	23591	3.412499999788	1
14	23605	3.41478277759	3
14	23619	3.41484977759	1
14	23621	3.41484977759	0
14	23636	3.417708333121	1
14	23926	3.455296386878	3
14	23938	3.455363386878	1
14	23939	3.455363386878	0
14	23958	3.459374999785	1
14	24021	3.470547986101	0
14	24052	3.474999999784	1
14	24442	3.533426669177	3
14	24456	3.533493669177	1
14	24458	3.533493669177	0
14	24479	3.53749999978	1
14	24492	3.538667538675	3
14	24506	3.538734538675	1
14	24508	3.538734538675	0
14	24523	3.542708333113	1
14	24814	3.580430001066	3
14	24826	3.580497001066	1
14	24827	3.580497001066	0
14	24846	3.584374999777	1
14	24909	3.595949411919	0
14	24940	3.599999999776	1
14	25330	3.658135425356	3
14	25344	3.658202425356	1
14	25346	3.658202425356	0
14	25367	3.662499999772	1
14	25380	3.662611326366	3
14	25394	3.662678326366	1
14	25396	3.662678326366	0
14	25411	3.667708333105	1
14	25702	3.704510829161	3
14	25714	3.704577829161	1
14	25715	3.704577829161	0
14	25734	3.709374999769	1
14	25797	3.721635341369	0
14	25828	3.724999999768	1
14	26218	3.782320627744	3
14	26232	3.782387627744	1
14	26234	3.782387627744	0
14	26255	3.787499999764	1
14	26268	3.788810153329	3
14	26282	3.788877153329	1
14	26284	3.788877153329	0
14	26300	3.792708333097	1
14	26590	3.830937744508	3
14	26602	3.831004744508	1
14	26603	3.831004744508	0
14	26622	3.834374999761	1
14	26685	3.846045463713	0
14	26716	3.84999999976	1
14	27106	3.907692410944	3
14	27120	3.907759410944	1
14	27122	3.907759410944	0
14	27143	3.912499999756	1
14	27156	3.913580156721	3
14	27170	3.913647156721	1
14	27172	3.913647156721	0
14	27187	3.917708333089	1
14	27478	3.956085070758	3
14	27490	3.956152070758	1
14	27491	3.956152070758	0
14	27510	3.959374999753	1
14	27573	3.971655591124	0
14	27604	3.974999999752	1
14	28007	4.034447326758	3
14	28021	4.034514326758	1
14	28023	4.034514326758	0
14	28044	4.037499999748	1
14	28057	4.039949923491	3
14	28071	4.040016923491	1
14	28073	4.040016923491	0
14	28087	4.042708333081	1
14	28378	4.081359542486	3
14	28390	4.081426542486	1
14	28391	4.081426542486	0
14	28410	4.084374999745	1
14	28473	4.095529319398	0
14	28504	4.099999999744	1
14	28895	4.158928388907	3
14	28909	4.158995388907	1
14	28911	4.158995388907	0
14	28931	4.16249999974	1
14	28945	4.164912035726	3
14	28959	4.164979035726	1
14	28961	4.164979035726	0
14	28975	4.167708333073	1
14	29266	4.205316289723	3
14	29278	4.205383289723	1
14	29279	4.205383289723	0
14	29298	4.209374999737	1
14	29361	4.221620479529	0
14	29392	4.224999999736	1
14	29783	4.284804949931	3
14	29797	4.284871949931	1
14	29799	4.284871949931	0
14	29819	4.287499999732	1
14	29832	4.288070679431	3
14	29846	4.288137679431	1
14	29848	4.288137679431	0
14	29863	4.292708333065	1
14	30154	4.330068137432	3
14	30166	4.330135137432	1
14	30167	4.330135137432	0
14	30186	4.334374999729	1
14	30249	4.34625879168	0
14	30280	4.349999999728	1
14	30671	4.409330607119	3
14	30685	4.409397607119	1
14	30687	4.409397607119	0
14	30707	4.412499999724	1
14	30721	4.414694409269	3
14	30735	4.414761409269	1
14	30737	4.414761409269	0
14	30751	4.417708333057	1
14	31042	4.455062256554	3
14	31054	4.455129256554	1
14	31055	4.455129256554	0
14	31074	4.459374999721	1
14	31137	4.471916716268	0
14	31168	4.47499999972	1
14	31558	4.532471144009	3
14	31572	4.532538144009	1
14	31574	4.532538144009	0
14	31595	4.537499999716	1
14	31608	4.538043808872	3
14	31623	4.538110808872	1
14	31625	4.538110808872	0
14	31640	4.542708333049	1
14	31930	4.581409099728	3
14	31942	4.581476099728	1
14	31943	4.581476099728	0
14	31962	4.584374999713	1
14	32025	4.595700524821	0
14	32056	4.599999999712	1
14	32447	4.657485887807	3
14	32461	4.657552887807	1
14	32463	4.657552887807	0
14	32483	4.662499999708	1
14	32497	4.664670524355	3
14	32511	4.664737524355	1
14	32513	4.664737524355	0
14	32528	4.667708333041	1
14	32818	4.705232464223	3
14	32830	4.705299464223	1
14	32831	4.705299464223	0
14	32850	4.709374999705	1
14	32913	4.72188389076	0
14	32944	4.724999999704	1
14	33335	4.78454817799	3
14	33349	4.78461517799	1
14	33351	4.78461517799	0
14	33372	4.7874999997	1
14	33385	4.788633863947	3
14	33399	4.788700863947	1
14	33401	4.788700863947	0
14	33415	4.792708333033	1
14	33706	4.831634088421	3
14	33718	4.831701088421	1
14	33719	4.831701088421	0
14	33738	4.834374999697	1
14	33801	4.846665852674	0
14	33832	4.849999999696	1
14	34222	4.907397760131	3
14	34236	4.907464760131	1
14	34238	4.907464760131	0
14	34259	4.912499999692	1
14	34272	4.913362153988	3
14	34286	4.913429153988	1
14	34288	4.913429153988	0
14	34304	4.917708333025	1
14	34594	4.954558731963	3
14	34606	4.954625731963	1
14	34607	4.954625731963	0
14	34626	4.959374999689	1
14	34689	4.970871039399	0
14	34720	4.974999999688	1
14	35161	5.032326971703	3
14	35176	5.032393971703	1
14	35178	5.032393971703	0
14	35198	5.037499999684	1
14	35211	5.038508386576	3
14	35225	5.038575386576	1
14	35227	5.038575386576	0
14	35243	5.042708333017	1
14	35542	5.080275275653	3
14	35554	5.080342275653	1
14	35555	5.080342275653	0
14	35574	5.084374999681	1
14	35640	5.095256014852	0
14	35671	5.09999999968	1
14	36065	5.159232704056	3
14	36079	5.159299704056	1
14	36081	5.159299704056	0
14	36101	5.162499999676	1
14	36114	5.163176563805	3
14	36128	5.163243563805	1
14	36130	5.163243563805	0
14	36145	5.167708333009	1
14	36442	5.205836414492	3
14	36454	5.205903414492	1
14	36455	5.205903414492	0
14	36474	5.209374999673	1
14	36537	5.220432951733	0
14	36571	5.224999999672	1
14	36964	5.283474995833	3
14	36978	5.283541995833	1
14	36980	5.283541995833	0
14	37001	5.287499999668	1
14	37014	5.287813437204	3
14	37028	5.287880437204	1
14	37030	5.287880437204	0
14	37048	5.292708333001	1
14	37369	5.331056501767	3
14	37381	5.331123501767	1
14	37382	5.331123501767	0
14	37401	5.334374999665	1
14	37467	5.345119222026	0
14	37498	5.349999999664	1
14	37904	5.409205743228	3
14	37918	5.409272743228	1
14	37920	5.409272743228	0
14	37940	5.41249999966	1
14	37954	5.412958448647	3
14	37968	5.413025448647	1
14	37970	5.413025448647	0
14	37984	5.417708332993	1
14	38281	5.45470490976	3
14	38293	5.45477190976	1
14	38294	5.45477190976	0
14	38316	5.459374999657	1
14	38382	5.470910386677	0
14	38416	5.474999999656	1
14	38813	5.534510396775	3
14	38827	5.534577396775	1
14	38829	5.534577396775	0
14	38850	5.537499999652	1
14	38863	5.539364715306	3
14	38877	5.539431715306	1
14	38879	5.539431715306	0
14	38893	5.542708332985	1
14	39193	5.580042603033	3
14	39205	5.580109603033	1
14	39206	5.580109603033	0
14	39225	5.584374999649	1
14	39294	5.596649274551	0
14	39328	5.599999999648	1
14	39731	5.657628033772	3
14	39745	5.657695033772	1
14	39747	5.657695033772	0
14	39767	5.662499999644	1
14	39780	5.664201112067	3
14	39794	5.664268112067	1
14	39796	5.664268112067	0
14	39812	5.667708332977	1
14	40111	5.704592202762	3
14	40123	5.704659202762	1
14	40124	5.704659202762	0
14	40146	5.709374999641	1
14	40209	5.72124726733	0
14	40240	5.72499999964	1
14	40652	5.784466890458	3
14	40666	5.784533890458	1
14	40668	5.784533890458	0
14	40688	5.787499999636	1
14	40702	5.789086589159	3
14	40716	5.789153589159	1
14	40718	5.789153589159	0
14	40732	5.792708332969	1
14	41041	5.830700947129	3
14	41053	5.830767947129	1
14	41054	5.830767947129	0
14	41073	5.834374999633	1
14	41139	5.847366828005	0
14	41170	5.849999999632	1
14	41573	5.909819968312	3
14	41587	5.909886968312	1
14	41589	5.909886968312	0
14	41609	5.912499999628	1
14	41623	5.914308522457	3
14	41637	5.914375522457	1
14	41639	5.914375522457	0
14	41653	5.917708332961	1
14	41953	5.954274251395	3
14	41965	5.954341251395	1
14	41966	5.954341251395	0
14	41988	5.959374999625	1
14	42051	5.972269557311	0
14	42082	5.974999999624	1
14	42490	6.032340754347	3
14	42504	6.032407754347	1
14	42506	6.032407754347	0
14	42527	6.03749999962	1
14	42540	6.037692235574	3
14	42554	6.037759235574	1
14	42556	6.037759235574	0
14	42572	6.042708332953	1
14	42868	6.079306137385	3
14	42880	6.079373137385	1
14	42881	6.079373137385	0
14	42900	6.084374999617	1
14	42966	6.09522077728	0
14	43000	6.099999999616	1
14	43400	6.1579080919	3
14	43414	6.1579750919	1
14	43416	6.1579750919	0
14	43436	6.162499999612	1
14	43449	6.163872287752	3
14	43463	6.163939287752	1
14	43465	6.163939287752	0
14	43483	6.167708332945	1
14	43774	6.204687403019	3
14	43786	6.204754403019	1
14	43787	6.204754403019	0
14	43806	6.209374999609	1
14	43872	6.220470624655	0
14	43903	6.224999999608	1
14	44309	6.282664883592	3
14	44323	6.282731883592	1
14	44325	6.282731883592	0
14	44345	6.287499999604	1
14	44358	6.287540042197	3
14	44372	6.287607042197	1
14	44374	6.287607042197	0
14	44389	6.292708332937	1
14	44689	6.329724764204	3
14	44701	6.329791764204	1
14	44702	6.329791764204	0
14	44724	6.334374999601	1
14	44787	6.345762741486	0
14	44818	6.3499999996	1
14	45227	6.408788454189	3
14	45241	6.408855454189	1
14	45243	6.408855454189	0
14	45263	6.412499999596	1
14	45277	6.414955053852	3
14	45291	6.415022053852	1
14	45293	6.415022053852	0
14	45307	6.417708332929	1
14	45631	6.455027925719	3
14	45643	6.455094925719	1
14	45644	6.455094925719	0
14	45663	6.459374999593	1
14	45729	6.470120208206	0
14	45760	6.474999999592	1
14	46159	6.533368064332	3
14	46173	6.533435064332	1
14	46175	6.533435064332	0
14	46196	6.537499999588	1
14	46210	6.53985316724	3
14	46224	6.53992016724	1
14	46226	6.53992016724	0
14	46240	6.542708332921	1
14	46537	6.579767219224	3
14	46549	6.579834219224	1
14	46550	6.579834219224	0
14	46569	6.584374999585	1
14	46632	6.596531508268	0
14	46663	6.599999999584	1
14	47072	6.658509522756	3
14	47086	6.658576522756	1
14	47088	6.658576522756	0
14	47111	6.66249999958	1
14	47125	6.663379396746	3
14	47139	6.663446396746	1
14	47141	6.663446396746	0
14	47155	6.667708332913	1
14	47461	6.704736597689	3
14	47473	6.704803597689	1
14	47474	6.704803597689	0
14	47493	6.709374999577	1
14	47556	6.721182556076	0
14	47587	6.724999999576	1
14	47980	6.782528093848	3
14	47994	6.782595093848	1
14	47996	6.782595093848	0
14	48017	6.787499999572	1
14	48031	6.78995700724	3
14	48045	6.79002400724	1
14	48047	6.79002400724	0
14	48062	6.792708332905	1
14	48358	6.831420213297	3
14	48370	6.831487213297	1
14	48371	6.831487213297	0
14	48390	6.834374999569	1
14	48453	6.844816276581	0
14	48487	6.849999999568	1
14	48884	6.909242929924	3
14	48898	6.909309929924	1
14	48900	6.909309929924	0
14	48920	6.912499999564	1
14	48934	6.912945327039	3
14	48948	6.913012327039	1
14	48950	6.913012327039	0
14	48964	6.917708332897	1
14	49267	6.95482633697	3
14	49279	6.95489333697	1
14	49280	6.95489333697	0
14	49299	6.959374999561	1
14	49365	6.96995547231	0
14	49396	6.97499999956	1
14	49811	7.034364675326	3
14	49825	7.034431675326	1
14	49827	7.034431675326	0
14	49847	7.037499999556	1
14	49860	7.037682241269	3
14	49874	7.037749241269	1
14	49876	7.037749241269	0
14	49891	7.042708332889	1
14	50191	7.080049049981	3
14	50203	7.080116049981	1
14	50204	7.080116049981	0
14	50223	7.084374999553	1
14	50286	7.096000552535	0
14	50317	7.099999999552	1
14	50723	7.158982027762	3
14	50737	7.159049027762	1
14	50739	7.159049027762	0
14	50759	7.162499999548	1
14	50773	7.163343355634	3
14	50787	7.163410355634	1
14	50789	7.163410355634	0
15	897	0.220324605815	1
15	899	0.220324605815	2
15	911	0.220391605815	1
15	911	0.220391605815	0
15	1785	0.346129109666	1
15	1787	0.346129109666	2
15	1799	0.346196109666	1
15	1799	0.346196109666	0
15	2673	0.469999076724	1
15	2675	0.469999076724	2
15	2687	0.470066076724	1
15	2687	0.470066076724	0
15	3561	0.596345690875	1
15	3563	0.596345690875	2
15	3575	0.596412690875	1
15	3575	0.596412690875	0
15	4449	0.720317039614	1
15	4451	0.720317039614	2
15	4463	0.720384039614	1
15	4463	0.720384039614	0
15	5337	0.846302094179	1
15	5339	0.846302094179	2
15	5351	0.846369094179	1
15	5351	0.846369094179	0
15	6225	0.970681285508	1
15	6227	0.970681285508	2
15	6239	0.970748285508	1
15	6239	0.970748285508	0
15	7125	1.097275370307	1
15	7127	1.097275370307	2
15	7139	1.097342370307	1
15	7139	1.097342370307	0
15	8013	1.21986250609	1
15	8015	1.21986250609	2
15	8027	1.21992950609	1
15	8027	1.21992950609	0
15	8901	1.346358898666	1
15	8903	1.346358898666	2
15	8915	1.346425898666	1
15	8915	1.346425898666	0
15	9789	1.469910622217	1
15	9791	1.469910622217	2
15	9803	1.469977622217	1
15	9803	1.469977622217	0
15	10677	1.595799192311	1
15	10679	1.595799192311	2
15	10691	1.595866192311	1
15	10691	1.595866192311	0
15	11565	1.720493199899	1
15	11567	1.720493199899	2
15	11579	1.720560199899	1
15	11579	1.720560199899	0
15	12453	1.845872150496	1
15	12455	1.845872150496	2
15	12467	1.845939150496	1
15	12467	1.845939150496	0
15	13341	1.969900514742	1
15	13343	1.969900514742	2
15	13355	1.969967514742	1
15	13355	1.969967514742	0
15	14241	2.096514274155	1
15	14243	2.096514274155	2
15	14255	2.096581274155	1
15	14255	2.096581274155	0
15	15129	2.221741608922	1
15	15131	2.221741608922	2
15	15143	2.221808608922	1
15	15143	2.221808608922	0
15	16017	2.345693327754	1
15	16019	2.345693327754	2
15	16031	2.345760327754	1
15	16031	2.345760327754	0
15	16905	2.471943358772	1
15	16907	2.471943358772	2
15	16919	2.472010358772	1
15	16919	2.472010358772	0
15	17793	2.596613334795	1
15	17795	2.596613334795	2
15	17807	2.596680334795	1
15	17807	2.596680334795	0
15	18681	2.72143062412	1
15	18683	2.72143062412	2
15	18695	2.72149762412	1
15	18695	2.72149762412	0
15	19569	2.845535426211	1
15	19571	2.845535426211	2
15	19583	2.845602426211	1
15	19583	2.845602426211	0
15	20457	2.970396141093	1
15	20459	2.970396141093	2
15	20471	2.970463141093	1
15	20471	2.970463141093	0
15	21357	3.096492240719	1
15	21359	3.096492240719	2
15	21371	3.096559240719	1
15	21371	3.096559240719	0
15	22245	3.219871326566	1
15	22247	3.219871326566	2
15	22259	3.219938326566	1
15	22259	3.219938326566	0
15	23133	3.345820704896	1
15	23135	3.345820704896	2
15	23147	3.345887704896	1
15	23147	3.345887704896	0
15	24021	3.470547986101	1
15	24023	3.470547986101	2
15	24035	3.470614986101	1
15	24035	3.470614986101	0
15	24909	3.595949411919	1
15	24911	3.595949411919	2
15	24923	3.596016411919	1
15	24923	3.596016411919	0
15	25797	3.721635341369	1
15	25799	3.721635341369	2
15	25811	3.721702341369	1
15	25811	3.721702341369	0
15	26685	3.846045463713	1
15	26687	3.846045463713	2
15	26699	3.846112463713	1
15	26699	3.846112463713	0
15	27573	3.971655591124	1
15	27575	3.971655591124	2
15	27587	3.971722591124	1
15	27587	3.971722591124	0
15	28473	4.095529319398	1
15	28475	4.095529319398	2
15	28487	4.095596319398	1
15	28487	4.095596319398	0
15	29361	4.221620479529	1
15	29363	4.221620479529	2
15	29375	4.221687479529	1
15	29375	4.221687479529	0
15	30249	4.34625879168	1
15	30251	4.34625879168	2
15	30263	4.34632579168	1
15	30263	4.34632579168	0
15	31137	4.471916716268	1
15	31139	4.471916716268	2
15	31151	4.471983716268	1
15	31151	4.471983716268	0
15	32025	4.595700524821	1
15	32027	4.595700524821	2
15	32039	4.595767524821	1
15	32039	4.595767524821	0
15	32913	4.72188389076	1
15	32915	4.72188389076	2
15	32927	4.72195089076	1
15	32927	4.72195089076	0
15	33801	4.846665852674	1
15	33803	4.846665852674	2
15	33815	4.846732852674	1
15	33815	4.846732852674	0
15	34689	4.970871039399	1
15	34691	4.970871039399	2
15	34703	4.970938039399	1
15	34703	4.970938039399	0
15	35640	5.095256014852	1
15	35642	5.095256014852	2
15	35654	5.095323014852	1
15	35654	5.095323014852	0
15	36537	5.220432951733	1
15	36539	5.220432951733	2
15	36551	5.220499951733	1
15	36551	5.220499951733	0
15	37467	5.345119222026	1
15	37469	5.345119222026	2
15	37481	5.345186222026	1
15	37481	5.345186222026	0
15	38382	5.470910386677	1
15	38384	5.470910386677	2
15	38396	5.470977386677	1
15	38396	5.470977386677	0
15	39294	5.596649274551	1
15	39296	5.596649274551	2
15	39308	5.596716274551	1
15	39308	5.596716274551	0
15	40209	5.72124726733	1
15	40211	5.72124726733	2
15	40223	5.72131426733	1
15	40223	5.72131426733	0
15	41139	5.847366828005	1
15	41141	5.847366828005	2
15	41153	5.847433828005	1
15	41153	5.847433828005	0
15	42051	5.972269557311	1
15	42053	5.972269557311	2
15	42065	5.972336557311	1
15	42065	5.972336557311	0
15	42966	6.09522077728	1
15	42968	6.09522077728	2
15	42980	6.09528777728	1
15	42980	6.09528777728	0
15	43872	6.220470624655	1
15	43874	6.220470624655	2
15	43886	6.220537624655	1
15	43886	6.220537624655	0
15	44787	6.345762741486	1
15	44789	6.345762741486	2
15	44801	6.345829741486	1
15	44801	6.345829741486	0
15	45729	6.470120208206	1
15	45731	6.470120208206	2
15	45743	6.470187208206	1
15	45743	6.470187208206	0
15	46632	6.596531508268	1
15	46634	6.596531508268	2
15	46646	6.596598508268	1
15	46646	6.596598508268	0
15	47556	6.721182556076	1
15	47558	6.721182556076	2
15	47570	6.721249556076	1
15	47570	6.721249556076	0
15	48453	6.844816276581	1
15	48455	6.844816276581	2
15	48467	6.844883276581	1
15	48467	6.844883276581	0
15	49365	6.96995547231	1
15	49367	6.96995547231	2
15	49379	6.97002247231	1
15	49379	6.97002247231	0
15	50286	7.096000552535	1
15	50288	7.096000552535	2
15	50300	7.096067552535	1
15	50300	7.096067552535	0
29	0	0	0
29	74	0.1	2
29	101	0.100549158359	1
29	113	0.105208333333	2
29	324	0.14416038824	1
29	334	0.146874999997	2
29	501	0.163762367434	3
29	515	0.163829367434	1
29	543	0.167708333329	2
29	918	0.220392439725	1
29	938	0.224999999992	2
29	962	0.225379544972	1
29	977	0.230208333325	2
29	1186	0.267514851288	1
29	1196	0.271874999989	2
29	1364	0.289117536012	3
29	1378	0.289184536012	1
29	1405	0.292708333321	2
29	1806	0.346196943576	1
29	1826	0.349999999984	2
29	1850	0.351595290889	1
29	1865	0.355208333317	2
29	2074	0.392214812701	1
29	2084	0.396874999981	2
29	2252	0.414723893967	3
29	2266	0.414790893967	1
29	2293	0.417708333313	2
29	2694	0.470066910634	1
29	2714	0.474999999976	2
29	2738	0.477592258143	1
29	2754	0.480208333309	2
29	2962	0.518050245573	1
29	2972	0.521874999973	2
29	3140	0.538614901876	3
29	3154	0.538681901876	1
29	3181	0.542708333305	2
29	3582	0.596413524785	1
29	3602	0.599999999968	2
29	3626	0.601540520434	1
29	3641	0.605208333301	2
29	3850	0.642323073467	1
29	3860	0.646874999965	2
29	4028	0.663073714043	3
29	4042	0.663140714043	1
29	4069	0.667708333297	2
29	4470	0.720384873524	1
29	4490	0.72499999996	2
29	4514	0.726287677853	1
29	4529	0.730208333293	2
29	4738	0.768402226384	1
29	4748	0.771874999957	2
29	4916	0.788815720573	3
29	4930	0.788882720573	1
29	4957	0.792708333289	2
29	5358	0.846369928089	1
29	5378	0.849999999952	2
29	5402	0.850378332055	1
29	5417	0.855208333285	2
29	5626	0.892157153139	1
29	5636	0.896874999949	2
29	5804	0.915011851725	3
29	5818	0.915078851725	1
29	5845	0.917708333281	2
29	6246	0.970749119418	1
29	6266	0.974999999944	2
29	6290	0.975888260906	1
29	6305	0.980208333277	2
29	6526	1.01821143835	1
29	6536	1.021874999941	2
29	6704	1.038637362602	3
29	6718	1.038704362602	1
29	6745	1.042708333273	2
29	7146	1.097343204217	1
29	7166	1.099999999936	2
29	7190	1.102145820554	1
29	7205	1.105208333269	2
29	7414	1.143151709248	1
29	7424	1.146874999933	2
29	7592	1.163454016588	3
29	7606	1.163521016588	1
29	7633	1.167708333265	2
29	8034	1.21993034	1
29	8054	1.224999999928	2
29	8078	1.227011526338	1
29	8094	1.230208333261	2
29	8302	1.267378191223	1
29	8312	1.271874999925	2
29	8480	1.290088156201	3
29	8494	1.290155156201	1
29	8521	1.292708333257	2
29	8922	1.346426732576	1
29	8942	1.34999999992	2
29	8966	1.351907126822	1
29	8981	1.355208333253	2
29	9190	1.39372658347	1
29	9200	1.396874999917	2
29	9368	1.41326308125	3
29	9382	1.41333008125	1
29	9409	1.417708333249	2
29	9810	1.469978456127	1
29	9830	1.474999999912	2
29	9854	1.477495893894	1
29	9870	1.480208333245	2
29	10078	1.519294795908	1
29	10088	1.521874999909	2
29	10256	1.538812501051	3
29	10270	1.538879501051	1
29	10297	1.542708333241	2
29	10698	1.595867026221	1
29	10718	1.599999999904	2
29	10742	1.601093041622	1
29	10757	1.605208333237	2
29	10966	1.643901211155	1
29	10976	1.646874999901	2
29	11143	1.663487527417	3
29	11157	1.663554527417	1
29	11186	1.667708333233	2
29	11586	1.720561033809	1
29	11606	1.724999999896	2
29	11630	1.726009953373	1
29	11645	1.730208333229	2
29	11854	1.768251909035	1
29	11864	1.771874999893	2
29	12032	1.789224484324	3
29	12046	1.789291484324	1
29	12073	1.792708333225	2
29	12474	1.845939984406	1
29	12494	1.849999999888	2
29	12518	1.852219173675	1
29	12533	1.855208333221	2
29	12742	1.892648229374	1
29	12752	1.896874999885	2
29	12920	1.915033621475	3
29	12934	1.915100621475	1
29	12961	1.917708333217	2
29	13362	1.969968348652	1
29	13382	1.97499999988	2
29	13406	1.976752106532	1
29	13422	1.980208333213	2
29	13642	2.018657416482	1
29	13652	2.021874999877	2
29	13819	2.038058947136	3
29	13833	2.038125947136	1
29	13861	2.042708333209	2
29	14262	2.096582108065	1
29	14282	2.099999999872	2
29	14306	2.102114497201	1
29	14321	2.105208333205	2
29	14530	2.142178451311	1
29	14540	2.146874999869	2
29	14708	2.164526062779	3
29	14722	2.164593062779	1
29	14749	2.167708333201	2
29	15150	2.221809442832	1
29	15170	2.224999999864	2
29	15194	2.226627017314	1
29	15209	2.230208333197	2
29	15418	2.268814150582	1
29	15428	2.271874999861	2
29	15595	2.288075098602	3
29	15609	2.288142098602	1
29	15637	2.292708333193	2
29	16038	2.345761161664	1
29	16058	2.349999999856	2
29	16082	2.35151128684	1
29	16097	2.355208333189	2
29	16306	2.392421423676	1
29	16316	2.396874999853	2
29	16483	2.413593060946	3
29	16497	2.413660060946	1
29	16525	2.417708333185	2
29	16926	2.472011192682	1
29	16946	2.474999999848	2
29	16970	2.476975565515	1
29	16985	2.480208333181	2
29	17194	2.518358362874	1
29	17204	2.521874999845	2
29	17372	2.539039732542	3
29	17386	2.539106732542	1
29	17413	2.542708333177	2
29	17814	2.596681168705	1
29	17834	2.59999999984	2
29	17858	2.600789671568	1
29	17873	2.605208333173	2
29	18082	2.642374633646	1
29	18092	2.646874999837	2
29	18260	2.662787976778	3
29	18274	2.662854976778	1
29	18301	2.667708333169	2
29	18702	2.72149845803	1
29	18722	2.724999999832	2
29	18746	2.725309090963	1
29	18761	2.730208333165	2
29	18970	2.767503178286	1
29	18980	2.771874999829	2
29	19148	2.787748145791	3
29	19162	2.787815145791	1
29	19189	2.792708333161	2
29	19590	2.845603260121	1
29	19610	2.849999999824	2
29	19634	2.850780293048	1
29	19649	2.855208333157	2
29	19858	2.892962130238	1
29	19868	2.896874999821	2
29	20036	2.914700815237	3
29	20050	2.914767815237	1
29	20077	2.917708333153	2
29	20478	2.970463975003	1
29	20498	2.974999999816	2
29	20522	2.975939815943	1
29	20537	2.980208333149	2
29	20758	3.018409790565	1
29	20768	3.021874999813	2
29	20936	3.039766004742	3
29	20950	3.039833004742	1
29	20977	3.042708333145	2
29	21378	3.096560074629	1
29	21398	3.099999999808	2
29	21422	3.101690278614	1
29	21437	3.105208333141	2
29	21646	3.143814931409	1
29	21656	3.146874999805	2
29	21824	3.163097848835	3
29	21838	3.163164848835	1
29	21865	3.167708333137	2
29	22266	3.219939160476	1
29	22286	3.2249999998	2
29	22310	3.227502162447	1
29	22326	3.230208333133	2
29	22534	3.267664539267	1
29	22544	3.271874999797	2
29	22711	3.287635996474	3
29	22725	3.287702996474	1
29	22753	3.292708333129	2
29	23154	3.345888538806	1
29	23174	3.349999999792	2
29	23198	3.350116614002	1
29	23213	3.355208333125	2
29	23422	3.393475195807	1
29	23432	3.396874999789	2
29	23600	3.41478194368	3
29	23614	3.41484894368	1
29	23642	3.417708333121	2
29	24042	3.470615820011	1
29	24062	3.474999999784	2
29	24086	3.476596273039	1
29	24101	3.480208333117	2
29	24310	3.518336725802	1
29	24320	3.521874999781	2
29	24487	3.538666704765	3
29	24501	3.538733704765	1
29	24529	3.542708333113	2
29	24930	3.596017245829	1
29	24950	3.599999999776	2
29	24974	3.602004314251	1
29	24989	3.605208333109	2
29	25198	3.643056420878	1
29	25208	3.646874999773	2
29	25375	3.662610492456	3
29	25389	3.662677492456	1
29	25417	3.667708333105	2
29	25818	3.721703175279	1
29	25838	3.724999999768	2
29	25862	3.725093142045	1
29	25877	3.730208333101	2
29	26086	3.768759468863	1
29	26096	3.771874999765	2
29	26263	3.788809319419	3
29	26277	3.788876319419	1
29	26306	3.792708333097	2
29	26706	3.846113297623	1
29	26726	3.84999999976	2
29	26750	3.851830558279	1
29	26765	3.855208333093	2
29	26974	3.893683390955	1
29	26984	3.896874999757	2
29	27151	3.913579322811	3
29	27165	3.913646322811	1
29	27193	3.917708333089	2
29	27594	3.971723425034	1
29	27614	3.974999999752	2
29	27638	3.976305556261	1
29	27653	3.980208333085	2
29	27874	4.016756501276	1
29	27884	4.021874999749	2
29	28052	4.039949089581	3
29	28066	4.040016089581	1
29	28093	4.042708333081	2
29	28494	4.095597153308	1
29	28514	4.099999999744	2
29	28538	4.100149998717	1
29	28553	4.105208333077	2
29	28762	4.142257527267	1
29	28772	4.146874999741	2
29	28940	4.164911201816	3
29	28954	4.164978201816	1
29	28981	4.167708333073	2
29	29382	4.221688313439	1
29	29402	4.224999999736	2
29	29426	4.227302768146	1
29	29441	4.230208333069	2
29	29650	4.268039751495	1
29	29660	4.271874999733	2
29	29827	4.288069845521	3
29	29841	4.288136845521	1
29	29869	4.292708333065	2
29	30270	4.34632662559	1
29	30290	4.349999999728	2
29	30314	4.351471294884	1
29	30329	4.355208333061	2
29	30538	4.394017213501	1
29	30548	4.396874999725	2
29	30716	4.414693575359	3
29	30730	4.414760575359	1
29	30757	4.417708333057	2
29	31158	4.471984550178	1
29	31178	4.47499999972	2
29	31202	4.476566597968	1
29	31217	4.480208333053	2
29	31426	4.517076673751	1
29	31436	4.521874999717	2
29	31603	4.538042974962	3
29	31618	4.538109974962	1
29	31646	4.542708333049	2
29	32046	4.595768358731	1
29	32066	4.599999999712	2
29	32090	4.600798579709	1
29	32105	4.605208333045	2
29	32314	4.643216637093	1
29	32324	4.646874999709	2
29	32492	4.664669690445	3
29	32506	4.664736690445	1
29	32534	4.667708333041	2
29	32934	4.72195172467	1
29	32954	4.724999999704	2
29	32978	4.727037226298	1
29	32993	4.730208333037	2
29	33202	4.766846815478	1
29	33212	4.771874999701	2
29	33380	4.788633030037	3
29	33394	4.788700030037	1
29	33421	4.792708333033	2
29	33822	4.846733686584	1
29	33842	4.849999999696	2
29	33866	4.850544477594	1
29	33881	4.855208333029	2
29	34090	4.893591290088	1
29	34100	4.896874999693	2
29	34267	4.913361320078	3
29	34281	4.913428320078	1
29	34310	4.917708333025	2
29	34710	4.970938873309	1
29	34730	4.974999999688	2
29	34754	4.975521451646	1
29	34769	4.980208333021	2
29	35026	5.01917403431	1
29	35036	5.021874999685	2
29	35206	5.038507552666	3
29	35220	5.038574552666	1
29	35249	5.042708333017	2
29	35661	5.095323848762	1
29	35681	5.09999999968	2
29	35705	5.102578623709	1
29	35720	5.105208333013	2
29	35932	5.143770071684	1
29	35942	5.146874999677	2
29	36109	5.163175729895	3
29	36123	5.163242729895	1
29	36151	5.167708333009	2
29	36558	5.220500785643	1
29	36581	5.224999999672	2
29	36605	5.225648169838	1
29	36620	5.230208333005	2
29	36832	5.268792426804	1
29	36842	5.271874999669	2
29	37009	5.287812603294	3
29	37023	5.287879603294	1
29	37054	5.292708333001	2
29	37488	5.345187055936	1
29	37508	5.349999999664	2
29	37532	5.351085335577	1
29	37548	5.355208332997	2
29	37768	5.393131228029	1
29	37778	5.396874999661	2
29	37949	5.412957614737	3
29	37963	5.413024614737	1
29	37990	5.417708332993	2
29	38403	5.470978220587	1
29	38426	5.474999999656	2
29	38450	5.476172406149	1
29	38465	5.480208332989	2
29	38680	5.518405885033	1
29	38690	5.521874999653	2
29	38858	5.539363881396	3
29	38872	5.539430881396	1
29	38899	5.542708332985	2
29	39315	5.596717108461	1
29	39338	5.599999999648	2
29	39362	5.601124929753	1
29	39377	5.605208332981	2
29	39598	5.644039874384	1
29	39608	5.646874999645	2
29	39775	5.664200278157	3
29	39789	5.664267278157	1
29	39818	5.667708332977	2
29	40230	5.72131510124	1
29	40250	5.72499999964	2
29	40274	5.726963170651	1
29	40289	5.730208332973	2
29	40516	5.767206245603	1
29	40526	5.771874999637	2
29	40697	5.789085755249	3
29	40711	5.789152755249	1
29	40738	5.792708332969	2
29	41160	5.847434661915	1
29	41180	5.849999999632	2
29	41204	5.851292941637	1
29	41219	5.855208332965	2
29	41431	5.894325516515	1
29	41441	5.896874999629	2
29	41618	5.914307688547	3
29	41632	5.914374688547	1
29	41659	5.917708332961	2
29	42072	5.972337391221	1
29	42092	5.974999999624	2
29	42116	5.975796098286	1
29	42131	5.980208332957	2
29	42358	6.018953934902	1
29	42368	6.021874999621	2
29	42535	6.037691401664	3
29	42549	6.037758401664	1
29	42578	6.042708332953	2
29	42987	6.09528861119	1
29	43010	6.099999999616	2
29	43034	6.101192520004	1
29	43049	6.105208332949	2
29	43264	6.144060453798	1
29	43274	6.146874999613	2
29	43444	6.163871453842	3
29	43458	6.163938453842	1
29	43489	6.167708332945	2
29	43893	6.220538458565	1
29	43913	6.224999999608	2
29	43937	6.226866288091	1
29	43952	6.230208332941	2
29	44167	6.267783036446	1
29	44180	6.271874999605	2
29	44353	6.287539208287	3
29	44367	6.287606208287	1
29	44395	6.292708332937	2
29	44808	6.345830575396	1
29	44828	6.3499999996	2
29	44852	6.351836499968	1
29	44870	6.355208332933	2
29	45091	6.391984170272	1
29	45101	6.396874999597	2
29	45272	6.414954219942	3
29	45286	6.415021219942	1
29	45313	6.417708332929	2
29	45750	6.470188042116	1
29	45770	6.474999999592	2
29	45794	6.475443268322	1
29	45810	6.480208332925	2
29	46021	6.51738888276	1
29	46031	6.521874999589	2
29	46205	6.53985233333	3
29	46219	6.53991933333	1
29	46246	6.542708332921	2
29	46653	6.596599342178	1
29	46673	6.599999999584	2
29	46703	6.602426346781	1
29	46724	6.605208332917	2
29	46936	6.643044413636	1
29	46946	6.646874999581	2
29	47120	6.663378562836	3
29	47134	6.663445562836	1
29	47161	6.667708332913	2
29	47577	6.721250389986	1
29	47597	6.724999999576	2
29	47621	6.726902539911	1
29	47636	6.730208332909	2
29	47848	6.766847754577	1
29	47858	6.771874999573	2
29	48026	6.78995617333	3
29	48040	6.79002317333	1
29	48068	6.792708332905	2
29	48474	6.844884110491	1
29	48497	6.849999999568	2
29	48521	6.85200868067	1
29	48537	6.855208332901	2
29	48751	6.892394782097	1
29	48761	6.896874999565	2
29	48929	6.912944493129	3
29	48943	6.913011493129	1
29	48970	6.917708332897	2
29	49386	6.97002330622	1
29	49406	6.97499999956	2
29	49433	6.977178561884	1
29	49452	6.980208332893	2
29	49675	7.016989605325	1
29	49685	7.021874999557	2
29	49855	7.037681407359	3
29	49869	7.037748407359	1
29	49897	7.042708332889	2
29	50307	7.096068386445	1
29	50327	7.099999999552	2
29	50351	7.102465725765	1
29	50366	7.105208332885	2
29	50581	7.142814365383	1
29	50594	7.146874999549	2
29	50768	7.163342521724	3
29	50782	7.163409521724	1
30	74	0.1	1
30	88	0.100482158359	3
30	100	0.100549158359	1
30	101	0.100549158359	0
30	113	0.105208333333	1
30	308	0.14409338824	3
30	322	0.14416038824	1
30	324	0.14416038824	0
30	334	0.146874999997	1
30	501	0.163762367434	0
30	543	0.167708333329	1
30	902	0.220325439725	3
30	916	0.220392439725	1
30	918	0.220392439725	0
30	938	0.224999999992	1
30	949	0.225312544972	3
30	961	0.225379544972	1
30	962	0.225379544972	0
30	977	0.230208333325	1
30	1170	0.267447851288	3
30	1184	0.267514851288	1
30	1186	0.267514851288	0
30	1196	0.271874999989	1
30	1364	0.289117536012	0
30	1405	0.292708333321	1
30	1790	0.346129943576	3
30	1804	0.346196943576	1
30	1806	0.346196943576	0
30	1826	0.349999999984	1
30	1837	0.351528290889	3
30	1849	0.351595290889	1
30	1850	0.351595290889	0
30	1865	0.355208333317	1
30	2058	0.392147812701	3
30	2072	0.392214812701	1
30	2074	0.392214812701	0
30	2084	0.396874999981	1
30	2252	0.414723893967	0
30	2293	0.417708333313	1
30	2678	0.469999910634	3
30	2692	0.470066910634	1
30	2694	0.470066910634	0
30	2714	0.474999999976	1
30	2725	0.477525258143	3
30	2737	0.477592258143	1
30	2738	0.477592258143	0
30	2754	0.480208333309	1
30	2946	0.517983245573	3
30	2960	0.518050245573	1
30	2962	0.518050245573	0
30	2972	0.521874999973	1
30	3140	0.538614901876	0
30	3181	0.542708333305	1
30	3566	0.596346524785	3
30	3580	0.596413524785	1
30	3582	0.596413524785	0
30	3602	0.599999999968	1
30	3613	0.601473520434	3
30	3625	0.601540520434	1
30	3626	0.601540520434	0
30	3641	0.605208333301	1
30	3834	0.642256073467	3
30	3848	0.642323073467	1
30	3850	0.642323073467	0
30	3860	0.646874999965	1
30	4028	0.663073714043	0
30	4069	0.667708333297	1
30	4454	0.720317873524	3
30	4468	0.720384873524	1
30	4470	0.720384873524	0
30	4490	0.72499999996	1
30	4501	0.726220677853	3
30	4513	0.726287677853	1
30	4514	0.726287677853	0
30	4529	0.730208333293	1
30	4722	0.768335226384	3
30	4736	0.768402226384	1
30	4738	0.768402226384	0
30	4748	0.771874999957	1
30	4916	0.788815720573	0
30	4957	0.792708333289	1
30	5342	0.846302928089	3
30	5356	0.846369928089	1
30	5358	0.846369928089	0
30	5378	0.849999999952	1
30	5389	0.850311332055	3
30	5401	0.850378332055	1
30	5402	0.850378332055	0
30	5417	0.855208333285	1
30	5610	0.892090153139	3
30	5624	0.892157153139	1
30	5626	0.892157153139	0
30	5636	0.896874999949	1
30	5804	0.915011851725	0
30	5845	0.917708333281	1
30	6230	0.970682119418	3
30	6244	0.970749119418	1
30	6246	0.970749119418	0
30	6266	0.974999999944	1
30	6277	0.975821260906	3
30	6289	0.975888260906	1
30	6290	0.975888260906	0
30	6305	0.980208333277	1
30	6510	1.01814443835	3
30	6524	1.01821143835	1
30	6526	1.01821143835	0
30	6536	1.021874999941	1
30	6704	1.038637362602	0
30	6745	1.042708333273	1
30	7130	1.097276204217	3
30	7144	1.097343204217	1
30	7146	1.097343204217	0
30	7166	1.099999999936	1
30	7177	1.102078820554	3
30	7189	1.102145820554	1
30	7190	1.102145820554	0
30	7205	1.105208333269	1
30	7398	1.143084709248	3
30	7412	1.143151709248	1
30	7414	1.143151709248	0
30	7424	1.146874999933	1
30	7592	1.163454016588	0
30	7633	1.167708333265	1
30	8018	1.21986334	3
30	8032	1.21993034	1
30	8034	1.21993034	0
30	8054	1.224999999928	1
30	8065	1.226944526338	3
30	8077	1.227011526338	1
30	8078	1.227011526338	0
30	8094	1.230208333261	1
30	8286	1.267311191223	3
30	8300	1.267378191223	1
30	8302	1.267378191223	0
30	8312	1.271874999925	1
30	8480	1.290088156201	0
30	8521	1.292708333257	1
30	8906	1.346359732576	3
30	8920	1.346426732576	1
30	8922	1.346426732576	0
30	8942	1.34999999992	1
30	8953	1.351840126822	3
30	8965	1.351907126822	1
30	8966	1.351907126822	0
30	8981	1.355208333253	1
30	9174	1.39365958347	3
30	9188	1.39372658347	1
30	9190	1.39372658347	0
30	9200	1.396874999917	1
30	9368	1.41326308125	0
30	9409	1.417708333249	1
30	9794	1.469911456127	3
30	9808	1.469978456127	1
30	9810	1.469978456127	0
30	9830	1.474999999912	1
30	9841	1.477428893894	3
30	9853	1.477495893894	1
30	9854	1.477495893894	0
30	9870	1.480208333245	1
30	10062	1.519227795908	3
30	10076	1.519294795908	1
30	10078	1.519294795908	0
30	10088	1.521874999909	1
30	10256	1.538812501051	0
30	10297	1.542708333241	1
30	10682	1.595800026221	3
30	10696	1.595867026221	1
30	10698	1.595867026221	0
30	10718	1.599999999904	1
30	10729	1.601026041622	3
30	10741	1.601093041622	1
30	10742	1.601093041622	0
30	10757	1.605208333237	1
30	10950	1.643834211155	3
30	10964	1.643901211155	1
30	10966	1.643901211155	0
30	10976	1.646874999901	1
30	11143	1.663487527417	0
30	11186	1.667708333233	1
30	11570	1.720494033809	3
30	11584	1.720561033809	1
30	11586	1.720561033809	0
30	11606	1.724999999896	1
30	11617	1.725942953373	3
30	11629	1.726009953373	1
30	11630	1.726009953373	0
30	11645	1.730208333229	1
30	11838	1.768184909035	3
30	11852	1.768251909035	1
30	11854	1.768251909035	0
30	11864	1.771874999893	1
30	12032	1.789224484324	0
30	12073	1.792708333225	1
30	12458	1.845872984406	3
30	12472	1.845939984406	1
30	12474	1.845939984406	0
30	12494	1.849999999888	1
30	12505	1.852152173675	3
30	12517	1.852219173675	1
30	12518	1.852219173675	0
30	12533	1.855208333221	1
30	12726	1.892581229374	3
30	12740	1.892648229374	1
30	12742	1.892648229374	0
30	12752	1.896874999885	1
30	12920	1.915033621475	0
30	12961	1.917708333217	1
30	13346	1.969901348652	3
30	13360	1.969968348652	1
30	13362	1.969968348652	0
30	13382	1.97499999988	1
30	13393	1.976685106532	3
30	13405	1.976752106532	1
30	13406	1.976752106532	0
30	13422	1.980208333213	1
30	13626	2.018590416482	3
30	13640	2.018657416482	1
30	13642	2.018657416482	0
30	13652	2.021874999877	1
30	13819	2.038058947136	0
30	13861	2.042708333209	1
30	14246	2.096515108065	3
30	14260	2.096582108065	1
30	14262	2.096582108065	0
30	14282	2.099999999872	1
30	14293	2.102047497201	3
30	14305	2.102114497201	1
30	14306	2.102114497201	0
30	14321	2.105208333205	1
30	14514	2.142111451311	3
30	14528	2.142178451311	1
30	14530	2.142178451311	0
30	14540	2.146874999869	1
30	14708	2.164526062779	0
30	14749	2.167708333201	1
30	15134	2.221742442832	3
30	15148	2.221809442832	1
30	15150	2.221809442832	0
30	15170	2.224999999864	1
30	15181	2.226560017314	3
30	15193	2.226627017314	1
30	15194	2.226627017314	0
30	15209	2.230208333197	1
30	15402	2.268747150582	3
30	15416	2.268814150582	1
30	15418	2.268814150582	0
30	15428	2.271874999861	1
30	15595	2.288075098602	0
30	15637	2.292708333193	1
30	16022	2.345694161664	3
30	16036	2.345761161664	1
30	16038	2.345761161664	0
30	16058	2.349999999856	1
30	16069	2.35144428684	3
30	16081	2.35151128684	1
30	16082	2.35151128684	0
30	16097	2.355208333189	1
30	16290	2.392354423676	3
30	16304	2.392421423676	1
30	16306	2.392421423676	0
30	16316	2.396874999853	1
30	16483	2.413593060946	0
30	16525	2.417708333185	1
30	16910	2.471944192682	3
30	16924	2.472011192682	1
30	16926	2.472011192682	0
30	16946	2.474999999848	1
30	16957	2.476908565515	3
30	16969	2.476975565515	1
30	16970	2.476975565515	0
30	16985	2.480208333181	1
30	17178	2.518291362874	3
30	17192	2.518358362874	1
30	17194	2.518358362874	0
30	17204	2.521874999845	1
30	17372	2.539039732542	0
30	17413	2.542708333177	1
30	17798	2.596614168705	3
30	17812	2.596681168705	1
30	17814	2.596681168705	0
30	17834	2.59999999984	1
30	17845	2.600722671568	3
30	17857	2.600789671568	1
30	17858	2.600789671568	0
30	17873	2.605208333173	1
30	18066	2.642307633646	3
30	18080	2.642374633646	1
30	18082	2.642374633646	0
30	18092	2.646874999837	1
30	18260	2.662787976778	0
30	18301	2.667708333169	1
30	18686	2.72143145803	3
30	18700	2.72149845803	1
30	18702	2.72149845803	0
30	18722	2.724999999832	1
30	18733	2.725242090963	3
30	18745	2.725309090963	1
30	18746	2.725309090963	0
30	18761	2.730208333165	1
30	18954	2.767436178286	3
30	18968	2.767503178286	1
30	18970	2.767503178286	0
30	18980	2.771874999829	1
30	19148	2.787748145791	0
30	19189	2.792708333161	1
30	19574	2.845536260121	3
30	19588	2.845603260121	1
30	19590	2.845603260121	0
30	19610	2.849999999824	1
30	19621	2.850713293048	3
30	19633	2.850780293048	1
30	19634	2.850780293048	0
30	19649	2.855208333157	1
30	19842	2.892895130238	3
30	19856	2.892962130238	1
30	19858	2.892962130238	0
30	19868	2.896874999821	1
30	20036	2.914700815237	0
30	20077	2.917708333153	1
30	20462	2.970396975003	3
30	20476	2.970463975003	1
30	20478	2.970463975003	0
30	20498	2.974999999816	1
30	20509	2.975872815943	3
30	20521	2.975939815943	1
30	20522	2.975939815943	0
30	20537	2.980208333149	1
30	20742	3.018342790565	3
30	20756	3.018409790565	1
30	20758	3.018409790565	0
30	20768	3.021874999813	1
30	20936	3.039766004742	0
30	20977	3.042708333145	1
30	21362	3.096493074629	3
30	21376	3.096560074629	1
30	21378	3.096560074629	0
30	21398	3.099999999808	1
30	21409	3.101623278614	3
30	21421	3.101690278614	1
30	21422	3.101690278614	0
30	21437	3.105208333141	1
30	21630	3.143747931409	3
30	21644	3.143814931409	1
30	21646	3.143814931409	0
30	21656	3.146874999805	1
30	21824	3.163097848835	0
30	21865	3.167708333137	1
30	22250	3.219872160476	3
30	22264	3.219939160476	1
30	22266	3.219939160476	0
30	22286	3.2249999998	1
30	22297	3.227435162447	3
30	22309	3.227502162447	1
30	22310	3.227502162447	0
30	22326	3.230208333133	1
30	22518	3.267597539267	3
30	22532	3.267664539267	1
30	22534	3.267664539267	0
30	22544	3.271874999797	1
30	22711	3.287635996474	0
30	22753	3.292708333129	1
30	23138	3.345821538806	3
30	23152	3.345888538806	1
30	23154	3.345888538806	0
30	23174	3.349999999792	1
30	23185	3.350049614002	3
30	23197	3.350116614002	1
30	23198	3.350116614002	0
30	23213	3.355208333125	1
30	23406	3.393408195807	3
30	23420	3.393475195807	1
30	23422	3.393475195807	0
30	23432	3.396874999789	1
30	23600	3.41478194368	0
30	23642	3.417708333121	1
30	24026	3.470548820011	3
30	24040	3.470615820011	1
30	24042	3.470615820011	0
30	24062	3.474999999784	1
30	24073	3.476529273039	3
30	24085	3.476596273039	1
30	24086	3.476596273039	0
30	24101	3.480208333117	1
30	24294	3.518269725802	3
30	24308	3.518336725802	1
30	24310	3.518336725802	0
30	24320	3.521874999781	1
30	24487	3.538666704765	0
30	24529	3.542708333113	1
30	24914	3.595950245829	3
30	24928	3.596017245829	1
30	24930	3.596017245829	0
30	24950	3.599999999776	1
30	24961	3.601937314251	3
30	24973	3.602004314251	1
30	24974	3.602004314251	0
30	24989	3.605208333109	1
30	25182	3.642989420878	3
30	25196	3.643056420878	1
30	25198	3.643056420878	0
30	25208	3.646874999773	1
30	25375	3.662610492456	0
30	25417	3.667708333105	1
30	25802	3.721636175279	3
30	25816	3.721703175279	1
30	25818	3.721703175279	0
30	25838	3.724999999768	1
30	25849	3.725026142045	3
30	25861	3.725093142045	1
30	25862	3.725093142045	0
30	25877	3.730208333101	1
30	26070	3.768692468863	3
30	26084	3.768759468863	1
30	26086	3.768759468863	0
30	26096	3.771874999765	1
30	26263	3.788809319419	0
30	26306	3.792708333097	1
30	26690	3.846046297623	3
30	26704	3.846113297623	1
30	26706	3.846113297623	0
30	26726	3.84999999976	1
30	26737	3.851763558279	3
30	26749	3.851830558279	1
30	26750	3.851830558279	0
30	26765	3.855208333093	1
30	26958	3.893616390955	3
30	26972	3.893683390955	1
30	26974	3.893683390955	0
30	26984	3.896874999757	1
30	27151	3.913579322811	0
30	27193	3.917708333089	1
30	27578	3.971656425034	3
30	27592	3.971723425034	1
30	27594	3.971723425034	0
30	27614	3.974999999752	1
30	27625	3.976238556261	3
30	27637	3.976305556261	1
30	27638	3.976305556261	0
30	27653	3.980208333085	1
30	27858	4.016689501276	3
30	27872	4.016756501276	1
30	27874	4.016756501276	0
30	27884	4.021874999749	1
30	28052	4.039949089581	0
30	28093	4.042708333081	1
30	28478	4.095530153308	3
30	28492	4.095597153308	1
30	28494	4.095597153308	0
30	28514	4.099999999744	1
30	28525	4.100082998717	3
30	28537	4.100149998717	1
30	28538	4.100149998717	0
30	28553	4.105208333077	1
30	28746	4.142190527267	3
30	28760	4.142257527267	1
30	28762	4.142257527267	0
30	28772	4.146874999741	1
30	28940	4.164911201816	0
30	28981	4.167708333073	1
30	29366	4.221621313439	3
30	29380	4.221688313439	1
30	29382	4.221688313439	0
30	29402	4.224999999736	1
30	29413	4.227235768146	3
30	29425	4.227302768146	1
30	29426	4.227302768146	0
30	29441	4.230208333069	1
30	29634	4.267972751495	3
30	29648	4.268039751495	1
30	29650	4.268039751495	0
30	29660	4.271874999733	1
30	29827	4.288069845521	0
30	29869	4.292708333065	1
30	30254	4.34625962559	3
30	30268	4.34632662559	1
30	30270	4.34632662559	0
30	30290	4.349999999728	1
30	30301	4.351404294884	3
30	30313	4.351471294884	1
30	30314	4.351471294884	0
30	30329	4.355208333061	1
30	30522	4.393950213501	3
30	30536	4.394017213501	1
30	30538	4.394017213501	0
30	30548	4.396874999725	1
30	30716	4.414693575359	0
30	30757	4.417708333057	1
30	31142	4.471917550178	3
30	31156	4.471984550178	1
30	31158	4.471984550178	0
30	31178	4.47499999972	1
30	31189	4.476499597968	3
30	31201	4.476566597968	1
30	31202	4.476566597968	0
30	31217	4.480208333053	1
30	31410	4.517009673751	3
30	31424	4.517076673751	1
30	31426	4.517076673751	0
30	31436	4.521874999717	1
30	31603	4.538042974962	0
30	31646	4.542708333049	1
30	32030	4.595701358731	3
30	32044	4.595768358731	1
30	32046	4.595768358731	0
30	32066	4.599999999712	1
30	32077	4.600731579709	3
30	32089	4.600798579709	1
30	32090	4.600798579709	0
30	32105	4.605208333045	1
30	32298	4.643149637093	3
30	32312	4.643216637093	1
30	32314	4.643216637093	0
30	32324	4.646874999709	1
30	32492	4.664669690445	0
30	32534	4.667708333041	1
30	32918	4.72188472467	3
30	32932	4.72195172467	1
30	32934	4.72195172467	0
30	32954	4.724999999704	1
30	32965	4.726970226298	3
30	32977	4.727037226298	1
[...]
196	19113	2.783699619348	1
196	19114	2.783699619348	0
196	19134	2.787499999828	1
196	19372	2.814101365402	0
196	19410	2.818749999826	1
196	19573	2.845536170154	3
196	19586	2.845603170154	1
196	19587	2.845603170154	0
196	19603	2.849999999824	1
196	19943	2.903515321227	3
196	19959	2.903582321227	1
196	19960	2.903582321227	0
196	19979	2.907291666487	1
196	19989	2.90955670646	3
196	20001	2.90962370646	1
196	20002	2.90962370646	0
196	20022	2.91249999982	1
196	20259	2.938668927127	0
196	20298	2.943749999818	1
196	20461	2.970396885036	3
196	20474	2.970463885036	1
196	20475	2.970463885036	0
196	20491	2.974999999816	1
196	20842	3.027504825771	3
196	20858	3.027571825771	1
196	20859	3.027571825771	0
196	20878	3.032291666479	1
196	20889	3.032862907889	3
196	20901	3.032929907889	1
196	20902	3.032929907889	0
196	20922	3.037499999812	1
196	21160	3.065473320238	0
196	21198	3.06874999981	1
196	21361	3.096492984662	3
196	21374	3.096559984662	1
196	21375	3.096559984662	0
196	21391	3.099999999808	1
196	21730	3.15216571377	3
196	21746	3.15223271377	1
196	21747	3.15223271377	0
196	21766	3.157291666471	1
196	21777	3.159408459909	3
196	21789	3.159475459909	1
196	21790	3.159475459909	0
196	21811	3.162499999804	1
196	22047	3.188769693836	0
196	22087	3.193749999802	1
196	22249	3.219872070509	3
196	22262	3.219939070509	1
196	22263	3.219939070509	0
196	22279	3.2249999998	1
196	22619	3.278620230507	3
196	22635	3.278687230507	1
196	22636	3.278687230507	0
196	22654	3.282291666463	1
196	22665	3.284663338977	3
196	22677	3.284730338977	1
196	22678	3.284730338977	0
196	22698	3.287499999796	1
196	22936	3.313654950802	0
196	22975	3.318749999794	1
196	23137	3.345821448839	3
196	23150	3.345888448839	1
196	23151	3.345888448839	0
196	23167	3.349999999792	1
196	23506	3.402600035506	3
196	23522	3.402667035506	1
196	23523	3.402667035506	0
196	23542	3.407291666455	1
196	23552	3.407370924216	3
196	23564	3.407437924216	1
196	23565	3.407437924216	0
196	23586	3.412499999788	1
196	23824	3.440155316092	0
196	23863	3.443749999786	1
196	24025	3.470548730044	3
196	24038	3.470615730044	1
196	24039	3.470615730044	0
196	24055	3.474999999784	1
196	24395	3.529567829378	3
196	24411	3.529634829378	1
196	24412	3.529634829378	0
196	24430	3.532291666447	1
196	24440	3.533426009039	3
196	24452	3.533493009039	1
196	24453	3.533493009039	0
196	24474	3.53749999978	1
196	24712	3.564649393777	0
196	24750	3.568749999778	1
196	24913	3.595950155862	3
196	24926	3.596017155862	1
196	24927	3.596017155862	0
196	24943	3.599999999776	1
196	25283	3.653453436891	3
196	25299	3.653520436891	1
196	25300	3.653520436891	0
196	25318	3.657291666439	1
196	25328	3.658134765218	3
196	25340	3.658201765218	1
196	25341	3.658201765218	0
196	25362	3.662499999772	1
196	25600	3.68971413305	0
196	25638	3.69374999977	1
196	25801	3.721636085312	3
196	25814	3.721703085312	1
196	25815	3.721703085312	0
196	25831	3.724999999768	1
196	26171	3.779108045611	3
196	26187	3.779175045611	1
196	26188	3.779175045611	0
196	26206	3.782291666431	1
196	26216	3.782319967606	3
196	26228	3.782386967606	1
196	26229	3.782386967606	0
196	26250	3.787499999764	1
196	26487	3.814405920883	0
196	26526	3.818749999762	1
196	26689	3.846046207656	3
196	26702	3.846113207656	1
196	26703	3.846113207656	0
196	26719	3.84999999976	1
196	27059	3.90431829694	3
196	27075	3.90438529694	1
196	27076	3.90438529694	0
196	27094	3.907291666423	1
196	27104	3.907691750806	3
196	27116	3.907758750806	1
196	27117	3.907758750806	0
196	27138	3.912499999756	1
196	27375	3.939699403247	0
196	27414	3.943749999754	1
196	27577	3.971656335067	3
196	27590	3.971723335067	1
196	27591	3.971723335067	0
196	27607	3.974999999752	1
196	27959	4.027149968563	3
196	27975	4.027216968563	1
196	27976	4.027216968563	0
196	27994	4.032291666415	1
196	28005	4.03444666662	3
196	28017	4.03451366662	1
196	28018	4.03451366662	0
196	28039	4.037499999748	1
196	28276	4.065265540861	0
196	28314	4.068749999746	1
196	28477	4.095530063341	3
196	28490	4.095597063341	1
196	28491	4.095597063341	0
196	28507	4.099999999744	1
196	28847	4.15309562677	3
196	28863	4.15316262677	1
196	28864	4.15316262677	0
196	28883	4.157291666407	1
196	28893	4.158927728769	3
196	28905	4.158994728769	1
196	28906	4.158994728769	0
196	28926	4.16249999974	1
196	29164	4.190928944051	0
196	29202	4.193749999738	1
196	29365	4.221621223472	3
196	29378	4.221688223472	1
196	29379	4.221688223472	0
196	29395	4.224999999736	1
196	29735	4.278402274288	3
196	29751	4.278469274288	1
196	29752	4.278469274288	0
196	29770	4.282291666399	1
196	29781	4.284804289793	3
196	29793	4.284871289793	1
196	29794	4.284871289793	0
196	29814	4.287499999732	1
196	30052	4.314629781622	0
196	30090	4.31874999973	1
196	30253	4.346259535623	3
196	30266	4.346326535623	1
196	30267	4.346326535623	0
196	30283	4.349999999728	1
196	30622	4.403848883685	3
196	30638	4.403915883685	1
196	30639	4.403915883685	0
196	30658	4.407291666391	1
196	30669	4.409329946981	3
196	30681	4.409396946981	1
196	30682	4.409396946981	0
196	30702	4.412499999724	1
196	30940	4.440992488989	0
196	30978	4.443749999722	1
196	31141	4.471917460211	3
196	31154	4.471984460211	1
196	31155	4.471984460211	0
196	31171	4.47499999972	1
196	31511	4.52798702217	3
196	31527	4.52805402217	1
196	31528	4.52805402217	0
196	31546	4.532291666383	1
196	31556	4.532470483871	3
196	31568	4.532537483871	1
196	31569	4.532537483871	0
196	31590	4.537499999716	1
196	31828	4.565605026319	0
196	31866	4.568749999714	1
196	32029	4.595701268764	3
196	32042	4.595768268764	1
196	32043	4.595768268764	0
196	32059	4.599999999712	1
196	32399	4.654181036535	3
196	32415	4.654248036535	1
196	32416	4.654248036535	0
196	32435	4.657291666375	1
196	32445	4.657485227669	3
196	32457	4.657552227669	1
196	32458	4.657552227669	0
196	32478	4.662499999708	1
196	32716	4.690444479393	0
196	32754	4.693749999706	1
196	32917	4.721884634703	3
196	32930	4.721951634703	1
196	32931	4.721951634703	0
196	32947	4.724999999704	1
196	33287	4.777363473662	3
196	33303	4.777430473662	1
196	33304	4.777430473662	0
196	33322	4.782291666367	1
196	33333	4.784547517852	3
196	33345	4.784614517852	1
196	33346	4.784614517852	0
196	33367	4.7874999997	1
196	33604	4.815834952983	0
196	33642	4.818749999698	1
196	33805	4.846666596617	3
196	33818	4.846733596617	1
196	33819	4.846733596617	0
196	33835	4.849999999696	1
196	34175	4.904089182657	3
196	34191	4.904156182657	1
196	34192	4.904156182657	0
196	34210	4.907291666359	1
196	34220	4.907397099993	3
196	34232	4.907464099993	1
196	34233	4.907464099993	0
196	34254	4.912499999692	1
196	34492	4.940172770425	0
196	34530	4.94374999969	1
196	34693	4.970871783342	3
196	34706	4.970938783342	1
196	34707	4.970938783342	0
196	34723	4.974999999688	1
196	35110	5.028757392984	3
196	35126	5.028824392984	1
196	35127	5.028824392984	0
196	35149	5.032291666351	1
196	35159	5.032326311565	3
196	35172	5.032393311565	1
196	35173	5.032393311565	0
196	35193	5.037499999684	1
196	35439	5.064533313695	0
196	35479	5.068749999682	1
196	35644	5.095256758795	3
196	35657	5.095323758795	1
196	35658	5.095323758795	0
196	35674	5.09999999968	1
196	36016	5.15331404965	3
196	36032	5.15338104965	1
196	36033	5.15338104965	0
196	36052	5.157291666343	1
196	36063	5.159232043918	3
196	36075	5.159299043918	1
196	36076	5.159299043918	0
196	36096	5.162499999676	1
196	36337	5.191095012898	0
196	36375	5.193749999674	1
196	36541	5.220433695676	3
196	36554	5.220500695676	1
196	36555	5.220500695676	0
196	36574	5.224999999672	1
196	36917	5.279069587817	3
196	36933	5.279136587817	1
196	36934	5.279136587817	0
196	36952	5.282291666335	1
196	36962	5.283474335695	3
196	36974	5.283541335695	1
196	36975	5.283541335695	0
196	36996	5.287499999668	1
196	37242	5.314744111393	0
196	37281	5.318749999666	1
196	37471	5.345119965969	3
196	37484	5.345186965969	1
196	37485	5.345186965969	0
196	37501	5.349999999664	1
196	37855	5.402856508394	3
196	37871	5.402923508394	1
196	37872	5.402923508394	0
196	37891	5.407291666327	1
196	37902	5.40920508309	3
196	37914	5.40927208309	1
196	37915	5.40927208309	0
196	37935	5.41249999966	1
196	38179	5.439059632719	0
196	38217	5.443749999658	1
196	38386	5.47091113062	3
196	38399	5.47097813062	1
196	38400	5.47097813062	0
196	38419	5.474999999656	1
196	38764	5.527311889691	3
196	38780	5.527378889691	1
196	38781	5.527378889691	0
196	38800	5.532291666319	1
196	38811	5.534509736637	3
196	38823	5.534576736637	1
196	38824	5.534576736637	0
196	38845	5.537499999652	1
196	39085	5.563998955575	0
196	39123	5.56874999965	1
196	39298	5.596650018494	3
196	39311	5.596717018494	1
196	39312	5.596717018494	0
196	39331	5.599999999648	1
196	39683	5.654644595916	3
196	39699	5.654711595916	1
196	39700	5.654711595916	0
196	39719	5.657291666311	1
196	39729	5.657627373634	3
196	39741	5.657694373634	1
196	39742	5.657694373634	0
196	39762	5.662499999644	1
196	40002	5.68877027974	0
196	40041	5.693749999642	1
196	40213	5.721248011273	3
196	40226	5.721315011273	1
196	40227	5.721315011273	0
196	40243	5.72499999964	1
196	40601	5.778423928432	3
196	40617	5.778490928432	1
196	40618	5.778490928432	0
196	40636	5.782291666303	1
196	40650	5.78446623032	3
196	40662	5.78453323032	1
196	40663	5.78453323032	0
196	40683	5.787499999636	1
196	40938	5.814384766781	0
196	40977	5.818749999634	1
196	41143	5.847367571948	3
196	41156	5.847434571948	1
196	41157	5.847434571948	0
196	41173	5.849999999632	1
196	41518	5.904235774153	3
196	41534	5.904302774153	1
196	41535	5.904302774153	0
196	41557	5.907291666295	1
196	41571	5.909819308174	3
196	41583	5.909886308174	1
196	41584	5.909886308174	0
196	41604	5.912499999628	1
196	41845	5.940821012165	0
196	41883	5.943749999626	1
196	42055	5.972270301254	3
196	42068	5.972337301254	1
196	42069	5.972337301254	0
196	42085	5.974999999624	1
196	42442	6.02875345077	3
196	42458	6.02882045077	1
196	42459	6.02882045077	0
196	42478	6.032291666287	1
196	42488	6.032340094209	3
196	42500	6.032407094209	1
196	42501	6.032407094209	0
196	42522	6.03749999962	1
196	42762	6.064461494139	0
196	42805	6.068749999618	1
196	42970	6.095221521223	3
196	42983	6.095288521223	1
196	42984	6.095288521223	0
196	43003	6.099999999616	1
196	43349	6.154232492029	3
196	43365	6.154299492029	1
196	43366	6.154299492029	0
196	43387	6.157291666279	1
196	43398	6.157907431762	3
196	43410	6.157974431762	1
196	43411	6.157974431762	0
196	43431	6.162499999612	1
196	43672	6.189815888396	0
196	43710	6.19374999961	1
196	43876	6.220471368598	3
196	43889	6.220538368598	1
196	43890	6.220538368598	0
196	43906	6.224999999608	1
196	44255	6.278221500873	3
196	44271	6.278288500873	1
196	44272	6.278288500873	0
196	44296	6.282291666271	1
196	44307	6.282664223454	3
196	44319	6.282731223454	1
196	44320	6.282731223454	0
196	44340	6.287499999604	1
196	44580	6.313617575958	0
196	44625	6.318749999602	1
196	44791	6.345763485429	3
196	44804	6.345830485429	1
196	44805	6.345830485429	0
196	44821	6.3499999996	1
196	45176	6.402597267629	3
196	45192	6.402664267629	1
196	45193	6.402664267629	0
196	45214	6.407291666263	1
196	45225	6.408787794051	3
196	45237	6.408854794051	1
196	45238	6.408854794051	0
196	45258	6.412499999596	1
196	45511	6.440440105855	0
196	45554	6.443749999594	1
196	45733	6.470120952149	3
196	45746	6.470187952149	1
196	45747	6.470187952149	0
196	45763	6.474999999592	1
196	46109	6.529379223292	3
196	46125	6.529446223292	1
196	46126	6.529446223292	0
196	46147	6.532291666255	1
196	46157	6.533367404194	3
196	46169	6.533434404194	1
196	46170	6.533434404194	0
196	46191	6.537499999588	1
196	46435	6.566060190034	0
196	46473	6.568749999586	1
196	46636	6.596532252211	3
196	46649	6.596599252211	1
196	46650	6.596599252211	0
196	46666	6.599999999584	1
196	47024	6.653068720967	3
196	47040	6.653135720967	1
196	47041	6.653135720967	0
196	47059	6.657291666247	1
196	47070	6.658508862618	3
196	47082	6.658575862618	1
196	47083	6.658575862618	0
196	47106	6.66249999958	1
196	47352	6.690347223086	0
196	47391	6.693749999578	1
196	47560	6.721183300019	3
196	47573	6.721250300019	1
196	47574	6.721250300019	0
196	47590	6.724999999576	1
196	47933	6.77772900342	3
196	47949	6.77779600342	1
196	47950	6.77779600342	0
196	47968	6.782291666239	1
196	47978	6.78252743371	3
196	47990	6.78259443371	1
196	47991	6.78259443371	0
196	48012	6.787499999572	1
196	48255	6.814472703297	0
196	48294	6.81874999957	1
196	48457	6.844817020524	3
196	48470	6.844884020524	1
196	48471	6.844884020524	0
196	48490	6.849999999568	1
196	48836	6.902746388344	3
196	48852	6.902813388344	1
196	48853	6.902813388344	0
196	48871	6.907291666231	1
196	48882	6.909242269786	3
196	48894	6.909309269786	1
196	48895	6.909309269786	0
196	48915	6.912499999564	1
196	49158	6.939069398139	0
196	49200	6.943749999562	1
196	49369	6.969956216253	3
196	49382	6.970023216253	1
196	49383	6.970023216253	0
196	49399	6.97499999956	1
196	49760	7.028377900856	3
196	49776	7.028444900856	1
196	49777	7.028444900856	0
196	49795	7.032291666223	1
196	49809	7.034364015188	3
196	49821	7.034431015188	1
196	49822	7.034431015188	0
196	49842	7.037499999556	1
196	50085	7.064078378816	0
196	50124	7.068749999554	1
196	50290	7.096001296478	3
196	50303	7.096068296478	1
196	50304	7.096068296478	0
196	50320	7.099999999552	1
196	50675	7.152843031628	3
196	50691	7.152910031628	1
196	50692	7.152910031628	0
196	50710	7.157291666215	1
196	50721	7.158981367624	3
196	50733	7.159048367624	1
196	50734	7.159048367624	0
196	50754	7.162499999548	1
197	725	0.188943819462	1
197	727	0.188943819462	2
197	739	0.189010819462	1
197	739	0.189010819462	0
197	1587	0.313892135253	1
197	1589	0.313892135253	2
197	1601	0.313959135253	1
197	1601	0.313959135253	0
197	2476	0.440746253862	1
197	2478	0.440746253862	2
197	2490	0.440813253862	1
197	2490	0.440813253862	0
197	3364	0.563872812397	1
197	3366	0.563872812397	2
197	3378	0.563939812397	1
197	3378	0.563939812397	0
197	4252	0.689759863205	1
197	4254	0.689759863205	2
197	4266	0.689826863205	1
197	4266	0.689826863205	0
197	5140	0.815608430821	1
197	5142	0.815608430821	2
197	5154	0.815675430821	1
197	5154	0.815675430821	0
197	6028	0.9408581251	1
197	6030	0.9408581251	2
197	6042	0.9409251251	1
197	6042	0.9409251251	0
197	6927	1.064936469148	1
197	6929	1.064936469148	2
197	6941	1.065003469148	1
197	6941	1.065003469148	0
197	7815	1.189599674535	1
197	7817	1.189599674535	2
197	7829	1.189666674535	1
197	7829	1.189666674535	0
197	8703	1.31562567271	1
197	8705	1.31562567271	2
197	8717	1.31569267271	1
197	8717	1.31569267271	0
197	9591	1.439470375644	1
197	9593	1.439470375644	2
197	9605	1.439537375644	1
197	9605	1.439537375644	0
197	10480	1.564218085197	1
197	10482	1.564218085197	2
197	10494	1.564285085197	1
197	10494	1.564285085197	0
197	11368	1.690618241939	1
197	11370	1.690618241939	2
197	11382	1.690685241939	1
197	11382	1.690685241939	0
197	12256	1.814836129565	1
197	12258	1.814836129565	2
197	12270	1.814903129565	1
197	12270	1.814903129565	0
197	13144	1.939357443952	1
197	13146	1.939357443952	2
197	13158	1.939424443952	1
197	13158	1.939424443952	0
197	14044	2.065218338233	1
197	14046	2.065218338233	2
197	14058	2.065285338233	1
197	14058	2.065285338233	0
197	14932	2.190804470257	1
197	14934	2.190804470257	2
197	14946	2.190871470257	1
197	14946	2.190871470257	0
197	15819	2.315083553434	1
197	15821	2.315083553434	2
197	15833	2.315150553434	1
197	15833	2.315150553434	0
197	16708	2.440126151321	1
197	16710	2.440126151321	2
197	16722	2.440193151321	1
197	16722	2.440193151321	0
197	17596	2.564968509682	1
197	17598	2.564968509682	2
197	17610	2.565035509682	1
197	17610	2.565035509682	0
197	18483	2.688568359317	1
197	18485	2.688568359317	2
197	18497	2.688635359317	1
197	18497	2.688635359317	0
197	19372	2.814101365402	1
197	19374	2.814101365402	2
197	19386	2.814168365402	1
197	19386	2.814168365402	0
197	20259	2.938668927127	1
197	20261	2.938668927127	2
197	20273	2.938735927127	1
197	20273	2.938735927127	0
197	21160	3.065473320238	1
197	21162	3.065473320238	2
197	21174	3.065540320238	1
197	21174	3.065540320238	0
197	22047	3.188769693836	1
197	22049	3.188769693836	2
197	22061	3.188836693836	1
197	22061	3.188836693836	0
197	22936	3.313654950802	1
197	22938	3.313654950802	2
197	22950	3.313721950802	1
197	22950	3.313721950802	0
197	23824	3.440155316092	1
197	23826	3.440155316092	2
197	23838	3.440222316092	1
197	23838	3.440222316092	0
197	24712	3.564649393777	1
197	24714	3.564649393777	2
197	24726	3.564716393777	1
197	24726	3.564716393777	0
197	25600	3.68971413305	1
197	25602	3.68971413305	2
197	25614	3.68978113305	1
197	25614	3.68978113305	0
197	26487	3.814405920883	1
197	26489	3.814405920883	2
197	26501	3.814472920883	1
197	26501	3.814472920883	0
197	27375	3.939699403247	1
197	27377	3.939699403247	2
197	27389	3.939766403247	1
197	27389	3.939766403247	0
197	28276	4.065265540861	1
197	28278	4.065265540861	2
197	28290	4.065332540861	1
197	28290	4.065332540861	0
197	29164	4.190928944051	1
197	29166	4.190928944051	2
197	29178	4.190995944051	1
197	29178	4.190995944051	0
197	30052	4.314629781622	1
197	30054	4.314629781622	2
197	30066	4.314696781622	1
197	30066	4.314696781622	0
197	30940	4.440992488989	1
197	30942	4.440992488989	2
197	30954	4.441059488989	1
197	30954	4.441059488989	0
197	31828	4.565605026319	1
197	31830	4.565605026319	2
197	31842	4.565672026319	1
197	31842	4.565672026319	0
197	32716	4.690444479393	1
197	32718	4.690444479393	2
197	32730	4.690511479393	1
197	32730	4.690511479393	0
197	33604	4.815834952983	1
197	33606	4.815834952983	2
197	33618	4.815901952983	1
197	33618	4.815901952983	0
197	34492	4.940172770425	1
197	34494	4.940172770425	2
197	34506	4.940239770425	1
197	34506	4.940239770425	0
197	35439	5.064533313695	1
197	35441	5.064533313695	2
197	35453	5.064600313695	1
197	35453	5.064600313695	0
197	36337	5.191095012898	1
197	36339	5.191095012898	2
197	36351	5.191162012898	1
197	36351	5.191162012898	0
197	37242	5.314744111393	1
197	37244	5.314744111393	2
197	37256	5.314811111393	1
197	37256	5.314811111393	0
197	38179	5.439059632719	1
197	38181	5.439059632719	2
197	38193	5.439126632719	1
197	38193	5.439126632719	0
197	39085	5.563998955575	1
197	39087	5.563998955575	2
197	39099	5.564065955575	1
197	39099	5.564065955575	0
197	40002	5.68877027974	1
197	40004	5.68877027974	2
197	40016	5.68883727974	1
197	40016	5.68883727974	0
197	40938	5.814384766781	1
197	40940	5.814384766781	2
197	40952	5.814451766781	1
197	40952	5.814451766781	0
197	41845	5.940821012165	1
197	41847	5.940821012165	2
197	41859	5.940888012165	1
197	41859	5.940888012165	0
197	42762	6.064461494139	1
197	42764	6.064461494139	2
197	42776	6.064528494139	1
197	42776	6.064528494139	0
197	43672	6.189815888396	1
197	43674	6.189815888396	2
197	43686	6.189882888396	1
197	43686	6.189882888396	0
197	44580	6.313617575958	1
197	44582	6.313617575958	2
197	44594	6.313684575958	1
197	44594	6.313684575958	0
197	45511	6.440440105855	1
197	45513	6.440440105855	2
197	45525	6.440507105855	1
197	45525	6.440507105855	0
197	46435	6.566060190034	1
197	46437	6.566060190034	2
197	46449	6.566127190034	1
197	46449	6.566127190034	0
197	47352	6.690347223086	1
197	47354	6.690347223086	2
197	47366	6.690414223086	1
197	47366	6.690414223086	0
197	48255	6.814472703297	1
197	48257	6.814472703297	2
197	48269	6.814539703297	1
197	48269	6.814539703297	0
197	49158	6.939069398139	1
197	49160	6.939069398139	2
197	49173	6.939136398139	1
197	49173	6.939136398139	0
197	50085	7.064078378816	1
197	50087	7.064078378816	2
197	50099	7.064145378816	1
197	50099	7.064145378816	0
199	101	0.100549158359	4
204	913	0.220391779587	9
